<?xml version="1.0" encoding="UTF-8"?>

<!-- generated on 05/12/17 12:54:30 by SUMO duarouter Version 0.24.0
<?xml version="1.0" encoding="UTF-8"?>

<configuration xmlns:xsi="http://www.w3.org/2001/XMLSchema-instance" xsi:noNamespaceSchemaLocation="http://sumo.dlr.de/xsd/duarouterConfiguration.xsd">

    <input>
        <net-file value="3.net.xml"/>
        <flow-files value="flows.xml"/>
    </input>

    <output>
        <output-file value="flow.rou.xml"/>
    </output>

</configuration>
-->

<routes>
    <vType id="CarA" length="5.00" minGap="2.50" maxSpeed="60.00" color="red">
        <carFollowing-Krauss accel="10.00" decel="4.00" sigma="0.50"/>
    </vType>
    <vehicle id="E10_18.0" type="CarA" depart="0.00">
        <route edges="E10 E14 E18"/>
    </vehicle>
    <vehicle id="E12_9.0" type="CarA" depart="0.00">
        <route edges="E12 E8 E9"/>
    </vehicle>
    <vehicle id="E16_25.0" type="CarA" depart="0.00">
        <route edges="E16 E21 E25"/>
    </vehicle>
    <vehicle id="E19_11.0" type="CarA" depart="0.00">
        <route edges="E19 E15 E11"/>
    </vehicle>
    <vehicle id="E1_23.0" type="CarA" depart="0.00">
        <route edges="E1 E2 E23"/>
    </vehicle>
    <vehicle id="E22_7.0" type="CarA" depart="0.00">
        <route edges="E22 E5 E7"/>
    </vehicle>
    <vehicle id="E24_17.0" type="CarA" depart="0.00">
        <route edges="E24 E20 E17"/>
    </vehicle>
    <vehicle id="E3_13.0" type="CarA" depart="0.00">
        <route edges="E3 E6 E13"/>
    </vehicle>
    <vehicle id="E19_11.1" type="CarA" depart="0.65">
        <route edges="E19 E15 E11"/>
    </vehicle>
    <vehicle id="E22_7.1" type="CarA" depart="0.90">
        <route edges="E22 E5 E7"/>
    </vehicle>
    <vehicle id="E1_23.1" type="CarA" depart="1.03">
        <route edges="E1 E2 E23"/>
    </vehicle>
    <vehicle id="E19_11.2" type="CarA" depart="1.31">
        <route edges="E19 E15 E11"/>
    </vehicle>
    <vehicle id="E3_13.1" type="CarA" depart="1.44">
        <route edges="E3 E6 E13"/>
    </vehicle>
    <vehicle id="E22_7.2" type="CarA" depart="1.80">
        <route edges="E22 E5 E7"/>
    </vehicle>
    <vehicle id="E19_11.3" type="CarA" depart="1.96">
        <route edges="E19 E15 E11"/>
    </vehicle>
    <vehicle id="E1_23.2" type="CarA" depart="2.06">
        <route edges="E1 E2 E23"/>
    </vehicle>
    <vehicle id="E24_17.1" type="CarA" depart="2.06">
        <route edges="E24 E20 E17"/>
    </vehicle>
    <vehicle id="E12_9.1" type="CarA" depart="2.40">
        <route edges="E12 E8 E9"/>
    </vehicle>
    <vehicle id="E19_11.4" type="CarA" depart="2.62">
        <route edges="E19 E15 E11"/>
    </vehicle>
    <vehicle id="E22_7.3" type="CarA" depart="2.70">
        <route edges="E22 E5 E7"/>
    </vehicle>
    <vehicle id="E16_25.1" type="CarA" depart="2.88">
        <route edges="E16 E21 E25"/>
    </vehicle>
    <vehicle id="E3_13.2" type="CarA" depart="2.88">
        <route edges="E3 E6 E13"/>
    </vehicle>
    <vehicle id="E1_23.3" type="CarA" depart="3.08">
        <route edges="E1 E2 E23"/>
    </vehicle>
    <vehicle id="E19_11.5" type="CarA" depart="3.27">
        <route edges="E19 E15 E11"/>
    </vehicle>
    <vehicle id="E10_18.1" type="CarA" depart="3.60">
        <route edges="E10 E14 E18"/>
    </vehicle>
    <vehicle id="E22_7.4" type="CarA" depart="3.60">
        <route edges="E22 E5 E7"/>
    </vehicle>
    <vehicle id="E19_11.6" type="CarA" depart="3.92">
        <route edges="E19 E15 E11"/>
    </vehicle>
    <vehicle id="E1_23.4" type="CarA" depart="4.11">
        <route edges="E1 E2 E23"/>
    </vehicle>
    <vehicle id="E24_17.2" type="CarA" depart="4.11">
        <route edges="E24 E20 E17"/>
    </vehicle>
    <vehicle id="E3_13.3" type="CarA" depart="4.32">
        <route edges="E3 E6 E13"/>
    </vehicle>
    <vehicle id="E22_7.5" type="CarA" depart="4.50">
        <route edges="E22 E5 E7"/>
    </vehicle>
    <vehicle id="E19_11.7" type="CarA" depart="4.58">
        <route edges="E19 E15 E11"/>
    </vehicle>
    <vehicle id="E12_9.2" type="CarA" depart="4.80">
        <route edges="E12 E8 E9"/>
    </vehicle>
    <vehicle id="E1_23.5" type="CarA" depart="5.14">
        <route edges="E1 E2 E23"/>
    </vehicle>
    <vehicle id="E19_11.8" type="CarA" depart="5.23">
        <route edges="E19 E15 E11"/>
    </vehicle>
    <vehicle id="E22_7.6" type="CarA" depart="5.40">
        <route edges="E22 E5 E7"/>
    </vehicle>
    <vehicle id="E16_25.2" type="CarA" depart="5.76">
        <route edges="E16 E21 E25"/>
    </vehicle>
    <vehicle id="E3_13.4" type="CarA" depart="5.76">
        <route edges="E3 E6 E13"/>
    </vehicle>
    <vehicle id="E19_11.9" type="CarA" depart="5.89">
        <route edges="E19 E15 E11"/>
    </vehicle>
    <vehicle id="E1_23.6" type="CarA" depart="6.17">
        <route edges="E1 E2 E23"/>
    </vehicle>
    <vehicle id="E24_17.3" type="CarA" depart="6.17">
        <route edges="E24 E20 E17"/>
    </vehicle>
    <vehicle id="E22_7.7" type="CarA" depart="6.30">
        <route edges="E22 E5 E7"/>
    </vehicle>
    <vehicle id="E19_11.10" type="CarA" depart="6.54">
        <route edges="E19 E15 E11"/>
    </vehicle>
    <vehicle id="E19_11.11" type="CarA" depart="7.19">
        <route edges="E19 E15 E11"/>
    </vehicle>
    <vehicle id="E1_23.7" type="CarA" depart="7.20">
        <route edges="E1 E2 E23"/>
    </vehicle>
    <vehicle id="E10_18.2" type="CarA" depart="7.20">
        <route edges="E10 E14 E18"/>
    </vehicle>
    <vehicle id="E12_9.3" type="CarA" depart="7.20">
        <route edges="E12 E8 E9"/>
    </vehicle>
    <vehicle id="E22_7.8" type="CarA" depart="7.20">
        <route edges="E22 E5 E7"/>
    </vehicle>
    <vehicle id="E3_13.5" type="CarA" depart="7.20">
        <route edges="E3 E6 E13"/>
    </vehicle>
    <vehicle id="E19_11.12" type="CarA" depart="7.85">
        <route edges="E19 E15 E11"/>
    </vehicle>
    <vehicle id="E22_7.9" type="CarA" depart="8.10">
        <route edges="E22 E5 E7"/>
    </vehicle>
    <vehicle id="E1_23.8" type="CarA" depart="8.22">
        <route edges="E1 E2 E23"/>
    </vehicle>
    <vehicle id="E24_17.4" type="CarA" depart="8.23">
        <route edges="E24 E20 E17"/>
    </vehicle>
    <vehicle id="E19_11.13" type="CarA" depart="8.50">
        <route edges="E19 E15 E11"/>
    </vehicle>
    <vehicle id="E16_25.3" type="CarA" depart="8.64">
        <route edges="E16 E21 E25"/>
    </vehicle>
    <vehicle id="E3_13.6" type="CarA" depart="8.64">
        <route edges="E3 E6 E13"/>
    </vehicle>
    <vehicle id="E22_7.10" type="CarA" depart="9.00">
        <route edges="E22 E5 E7"/>
    </vehicle>
    <vehicle id="E19_11.14" type="CarA" depart="9.16">
        <route edges="E19 E15 E11"/>
    </vehicle>
    <vehicle id="E1_23.9" type="CarA" depart="9.25">
        <route edges="E1 E2 E23"/>
    </vehicle>
    <vehicle id="E12_9.4" type="CarA" depart="9.60">
        <route edges="E12 E8 E9"/>
    </vehicle>
    <vehicle id="E19_11.15" type="CarA" depart="9.81">
        <route edges="E19 E15 E11"/>
    </vehicle>
    <vehicle id="E22_7.11" type="CarA" depart="9.90">
        <route edges="E22 E5 E7"/>
    </vehicle>
    <vehicle id="E3_13.7" type="CarA" depart="10.08">
        <route edges="E3 E6 E13"/>
    </vehicle>
    <vehicle id="E1_23.10" type="CarA" depart="10.28">
        <route edges="E1 E2 E23"/>
    </vehicle>
    <vehicle id="E24_17.5" type="CarA" depart="10.29">
        <route edges="E24 E20 E17"/>
    </vehicle>
    <vehicle id="E19_11.16" type="CarA" depart="10.46">
        <route edges="E19 E15 E11"/>
    </vehicle>
    <vehicle id="E10_18.3" type="CarA" depart="10.80">
        <route edges="E10 E14 E18"/>
    </vehicle>
    <vehicle id="E22_7.12" type="CarA" depart="10.80">
        <route edges="E22 E5 E7"/>
    </vehicle>
    <vehicle id="E19_11.17" type="CarA" depart="11.12">
        <route edges="E19 E15 E11"/>
    </vehicle>
    <vehicle id="E1_23.11" type="CarA" depart="11.31">
        <route edges="E1 E2 E23"/>
    </vehicle>
    <vehicle id="E16_25.4" type="CarA" depart="11.52">
        <route edges="E16 E21 E25"/>
    </vehicle>
    <vehicle id="E3_13.8" type="CarA" depart="11.52">
        <route edges="E3 E6 E13"/>
    </vehicle>
    <vehicle id="E22_7.13" type="CarA" depart="11.70">
        <route edges="E22 E5 E7"/>
    </vehicle>
    <vehicle id="E19_11.18" type="CarA" depart="11.77">
        <route edges="E19 E15 E11"/>
    </vehicle>
    <vehicle id="E12_9.5" type="CarA" depart="12.00">
        <route edges="E12 E8 E9"/>
    </vehicle>
    <vehicle id="E1_23.12" type="CarA" depart="12.34">
        <route edges="E1 E2 E23"/>
    </vehicle>
    <vehicle id="E24_17.6" type="CarA" depart="12.34">
        <route edges="E24 E20 E17"/>
    </vehicle>
    <vehicle id="E19_11.19" type="CarA" depart="12.43">
        <route edges="E19 E15 E11"/>
    </vehicle>
    <vehicle id="E22_7.14" type="CarA" depart="12.60">
        <route edges="E22 E5 E7"/>
    </vehicle>
    <vehicle id="E3_13.9" type="CarA" depart="12.96">
        <route edges="E3 E6 E13"/>
    </vehicle>
    <vehicle id="E19_11.20" type="CarA" depart="13.08">
        <route edges="E19 E15 E11"/>
    </vehicle>
    <vehicle id="E1_23.13" type="CarA" depart="13.36">
        <route edges="E1 E2 E23"/>
    </vehicle>
    <vehicle id="E22_7.15" type="CarA" depart="13.50">
        <route edges="E22 E5 E7"/>
    </vehicle>
    <vehicle id="E19_11.21" type="CarA" depart="13.73">
        <route edges="E19 E15 E11"/>
    </vehicle>
    <vehicle id="E19_11.22" type="CarA" depart="14.39">
        <route edges="E19 E15 E11"/>
    </vehicle>
    <vehicle id="E1_23.14" type="CarA" depart="14.39">
        <route edges="E1 E2 E23"/>
    </vehicle>
    <vehicle id="E24_17.7" type="CarA" depart="14.40">
        <route edges="E24 E20 E17"/>
    </vehicle>
    <vehicle id="E10_18.4" type="CarA" depart="14.40">
        <route edges="E10 E14 E18"/>
    </vehicle>
    <vehicle id="E12_9.6" type="CarA" depart="14.40">
        <route edges="E12 E8 E9"/>
    </vehicle>
    <vehicle id="E16_25.5" type="CarA" depart="14.40">
        <route edges="E16 E21 E25"/>
    </vehicle>
    <vehicle id="E22_7.16" type="CarA" depart="14.40">
        <route edges="E22 E5 E7"/>
    </vehicle>
    <vehicle id="E3_13.10" type="CarA" depart="14.40">
        <route edges="E3 E6 E13"/>
    </vehicle>
    <vehicle id="E19_11.23" type="CarA" depart="15.04">
        <route edges="E19 E15 E11"/>
    </vehicle>
    <vehicle id="E22_7.17" type="CarA" depart="15.30">
        <route edges="E22 E5 E7"/>
    </vehicle>
    <vehicle id="E1_23.15" type="CarA" depart="15.42">
        <route edges="E1 E2 E23"/>
    </vehicle>
    <vehicle id="E19_11.24" type="CarA" depart="15.70">
        <route edges="E19 E15 E11"/>
    </vehicle>
    <vehicle id="E3_13.11" type="CarA" depart="15.84">
        <route edges="E3 E6 E13"/>
    </vehicle>
    <vehicle id="E22_7.18" type="CarA" depart="16.20">
        <route edges="E22 E5 E7"/>
    </vehicle>
    <vehicle id="E19_11.25" type="CarA" depart="16.35">
        <route edges="E19 E15 E11"/>
    </vehicle>
    <vehicle id="E1_23.16" type="CarA" depart="16.45">
        <route edges="E1 E2 E23"/>
    </vehicle>
    <vehicle id="E24_17.8" type="CarA" depart="16.46">
        <route edges="E24 E20 E17"/>
    </vehicle>
    <vehicle id="E12_9.7" type="CarA" depart="16.80">
        <route edges="E12 E8 E9"/>
    </vehicle>
    <vehicle id="E19_11.26" type="CarA" depart="17.00">
        <route edges="E19 E15 E11"/>
    </vehicle>
    <vehicle id="E22_7.19" type="CarA" depart="17.10">
        <route edges="E22 E5 E7"/>
    </vehicle>
    <vehicle id="E16_25.6" type="CarA" depart="17.28">
        <route edges="E16 E21 E25"/>
    </vehicle>
    <vehicle id="E3_13.12" type="CarA" depart="17.28">
        <route edges="E3 E6 E13"/>
    </vehicle>
    <vehicle id="E1_23.17" type="CarA" depart="17.48">
        <route edges="E1 E2 E23"/>
    </vehicle>
    <vehicle id="E19_11.27" type="CarA" depart="17.66">
        <route edges="E19 E15 E11"/>
    </vehicle>
    <vehicle id="E10_18.5" type="CarA" depart="18.00">
        <route edges="E10 E14 E18"/>
    </vehicle>
    <vehicle id="E22_7.20" type="CarA" depart="18.00">
        <route edges="E22 E5 E7"/>
    </vehicle>
    <vehicle id="E19_11.28" type="CarA" depart="18.31">
        <route edges="E19 E15 E11"/>
    </vehicle>
    <vehicle id="E1_23.18" type="CarA" depart="18.50">
        <route edges="E1 E2 E23"/>
    </vehicle>
    <vehicle id="E24_17.9" type="CarA" depart="18.51">
        <route edges="E24 E20 E17"/>
    </vehicle>
    <vehicle id="E3_13.13" type="CarA" depart="18.72">
        <route edges="E3 E6 E13"/>
    </vehicle>
    <vehicle id="E22_7.21" type="CarA" depart="18.90">
        <route edges="E22 E5 E7"/>
    </vehicle>
    <vehicle id="E19_11.29" type="CarA" depart="18.97">
        <route edges="E19 E15 E11"/>
    </vehicle>
    <vehicle id="E12_9.8" type="CarA" depart="19.20">
        <route edges="E12 E8 E9"/>
    </vehicle>
    <vehicle id="E1_23.19" type="CarA" depart="19.53">
        <route edges="E1 E2 E23"/>
    </vehicle>
    <vehicle id="E19_11.30" type="CarA" depart="19.62">
        <route edges="E19 E15 E11"/>
    </vehicle>
    <vehicle id="E22_7.22" type="CarA" depart="19.80">
        <route edges="E22 E5 E7"/>
    </vehicle>
    <vehicle id="E16_25.7" type="CarA" depart="20.16">
        <route edges="E16 E21 E25"/>
    </vehicle>
    <vehicle id="E3_13.14" type="CarA" depart="20.16">
        <route edges="E3 E6 E13"/>
    </vehicle>
    <vehicle id="E19_11.31" type="CarA" depart="20.27">
        <route edges="E19 E15 E11"/>
    </vehicle>
    <vehicle id="E1_23.20" type="CarA" depart="20.56">
        <route edges="E1 E2 E23"/>
    </vehicle>
    <vehicle id="E24_17.10" type="CarA" depart="20.57">
        <route edges="E24 E20 E17"/>
    </vehicle>
    <vehicle id="E22_7.23" type="CarA" depart="20.70">
        <route edges="E22 E5 E7"/>
    </vehicle>
    <vehicle id="E19_11.32" type="CarA" depart="20.93">
        <route edges="E19 E15 E11"/>
    </vehicle>
    <vehicle id="E19_11.33" type="CarA" depart="21.58">
        <route edges="E19 E15 E11"/>
    </vehicle>
    <vehicle id="E1_23.21" type="CarA" depart="21.59">
        <route edges="E1 E2 E23"/>
    </vehicle>
    <vehicle id="E10_18.6" type="CarA" depart="21.60">
        <route edges="E10 E14 E18"/>
    </vehicle>
    <vehicle id="E12_9.9" type="CarA" depart="21.60">
        <route edges="E12 E8 E9"/>
    </vehicle>
    <vehicle id="E22_7.24" type="CarA" depart="21.60">
        <route edges="E22 E5 E7"/>
    </vehicle>
    <vehicle id="E3_13.15" type="CarA" depart="21.60">
        <route edges="E3 E6 E13"/>
    </vehicle>
    <vehicle id="E19_11.34" type="CarA" depart="22.24">
        <route edges="E19 E15 E11"/>
    </vehicle>
    <vehicle id="E22_7.25" type="CarA" depart="22.50">
        <route edges="E22 E5 E7"/>
    </vehicle>
    <vehicle id="E1_23.22" type="CarA" depart="22.62">
        <route edges="E1 E2 E23"/>
    </vehicle>
    <vehicle id="E24_17.11" type="CarA" depart="22.63">
        <route edges="E24 E20 E17"/>
    </vehicle>
    <vehicle id="E19_11.35" type="CarA" depart="22.89">
        <route edges="E19 E15 E11"/>
    </vehicle>
    <vehicle id="E16_25.8" type="CarA" depart="23.04">
        <route edges="E16 E21 E25"/>
    </vehicle>
    <vehicle id="E3_13.16" type="CarA" depart="23.04">
        <route edges="E3 E6 E13"/>
    </vehicle>
    <vehicle id="E22_7.26" type="CarA" depart="23.40">
        <route edges="E22 E5 E7"/>
    </vehicle>
    <vehicle id="E19_11.36" type="CarA" depart="23.54">
        <route edges="E19 E15 E11"/>
    </vehicle>
    <vehicle id="E1_23.23" type="CarA" depart="23.64">
        <route edges="E1 E2 E23"/>
    </vehicle>
    <vehicle id="E12_9.10" type="CarA" depart="24.00">
        <route edges="E12 E8 E9"/>
    </vehicle>
    <vehicle id="E19_11.37" type="CarA" depart="24.20">
        <route edges="E19 E15 E11"/>
    </vehicle>
    <vehicle id="E22_7.27" type="CarA" depart="24.30">
        <route edges="E22 E5 E7"/>
    </vehicle>
    <vehicle id="E3_13.17" type="CarA" depart="24.48">
        <route edges="E3 E6 E13"/>
    </vehicle>
    <vehicle id="E1_23.24" type="CarA" depart="24.67">
        <route edges="E1 E2 E23"/>
    </vehicle>
    <vehicle id="E24_17.12" type="CarA" depart="24.68">
        <route edges="E24 E20 E17"/>
    </vehicle>
    <vehicle id="E19_11.38" type="CarA" depart="24.85">
        <route edges="E19 E15 E11"/>
    </vehicle>
    <vehicle id="E10_18.7" type="CarA" depart="25.20">
        <route edges="E10 E14 E18"/>
    </vehicle>
    <vehicle id="E22_7.28" type="CarA" depart="25.20">
        <route edges="E22 E5 E7"/>
    </vehicle>
    <vehicle id="E19_11.39" type="CarA" depart="25.51">
        <route edges="E19 E15 E11"/>
    </vehicle>
    <vehicle id="E1_23.25" type="CarA" depart="25.70">
        <route edges="E1 E2 E23"/>
    </vehicle>
    <vehicle id="E16_25.9" type="CarA" depart="25.92">
        <route edges="E16 E21 E25"/>
    </vehicle>
    <vehicle id="E3_13.18" type="CarA" depart="25.92">
        <route edges="E3 E6 E13"/>
    </vehicle>
    <vehicle id="E22_7.29" type="CarA" depart="26.10">
        <route edges="E22 E5 E7"/>
    </vehicle>
    <vehicle id="E19_11.40" type="CarA" depart="26.16">
        <route edges="E19 E15 E11"/>
    </vehicle>
    <vehicle id="E12_9.11" type="CarA" depart="26.40">
        <route edges="E12 E8 E9"/>
    </vehicle>
    <vehicle id="E1_23.26" type="CarA" depart="26.73">
        <route edges="E1 E2 E23"/>
    </vehicle>
    <vehicle id="E24_17.13" type="CarA" depart="26.74">
        <route edges="E24 E20 E17"/>
    </vehicle>
    <vehicle id="E19_11.41" type="CarA" depart="26.81">
        <route edges="E19 E15 E11"/>
    </vehicle>
    <vehicle id="E22_7.30" type="CarA" depart="27.00">
        <route edges="E22 E5 E7"/>
    </vehicle>
    <vehicle id="E3_13.19" type="CarA" depart="27.36">
        <route edges="E3 E6 E13"/>
    </vehicle>
    <vehicle id="E19_11.42" type="CarA" depart="27.47">
        <route edges="E19 E15 E11"/>
    </vehicle>
    <vehicle id="E1_23.27" type="CarA" depart="27.76">
        <route edges="E1 E2 E23"/>
    </vehicle>
    <vehicle id="E22_7.31" type="CarA" depart="27.90">
        <route edges="E22 E5 E7"/>
    </vehicle>
    <vehicle id="E19_11.43" type="CarA" depart="28.12">
        <route edges="E19 E15 E11"/>
    </vehicle>
    <vehicle id="E19_11.44" type="CarA" depart="28.78">
        <route edges="E19 E15 E11"/>
    </vehicle>
    <vehicle id="E1_23.28" type="CarA" depart="28.78">
        <route edges="E1 E2 E23"/>
    </vehicle>
    <vehicle id="E24_17.14" type="CarA" depart="28.80">
        <route edges="E24 E20 E17"/>
    </vehicle>
    <vehicle id="E10_18.8" type="CarA" depart="28.80">
        <route edges="E10 E14 E18"/>
    </vehicle>
    <vehicle id="E12_9.12" type="CarA" depart="28.80">
        <route edges="E12 E8 E9"/>
    </vehicle>
    <vehicle id="E16_25.10" type="CarA" depart="28.80">
        <route edges="E16 E21 E25"/>
    </vehicle>
    <vehicle id="E22_7.32" type="CarA" depart="28.80">
        <route edges="E22 E5 E7"/>
    </vehicle>
    <vehicle id="E3_13.20" type="CarA" depart="28.80">
        <route edges="E3 E6 E13"/>
    </vehicle>
    <vehicle id="E19_11.45" type="CarA" depart="29.43">
        <route edges="E19 E15 E11"/>
    </vehicle>
    <vehicle id="E22_7.33" type="CarA" depart="29.70">
        <route edges="E22 E5 E7"/>
    </vehicle>
    <vehicle id="E1_23.29" type="CarA" depart="29.81">
        <route edges="E1 E2 E23"/>
    </vehicle>
    <vehicle id="E19_11.46" type="CarA" depart="30.08">
        <route edges="E19 E15 E11"/>
    </vehicle>
    <vehicle id="E3_13.21" type="CarA" depart="30.24">
        <route edges="E3 E6 E13"/>
    </vehicle>
    <vehicle id="E22_7.34" type="CarA" depart="30.60">
        <route edges="E22 E5 E7"/>
    </vehicle>
    <vehicle id="E19_11.47" type="CarA" depart="30.74">
        <route edges="E19 E15 E11"/>
    </vehicle>
    <vehicle id="E1_23.30" type="CarA" depart="30.84">
        <route edges="E1 E2 E23"/>
    </vehicle>
    <vehicle id="E24_17.15" type="CarA" depart="30.86">
        <route edges="E24 E20 E17"/>
    </vehicle>
    <vehicle id="E12_9.13" type="CarA" depart="31.20">
        <route edges="E12 E8 E9"/>
    </vehicle>
    <vehicle id="E19_11.48" type="CarA" depart="31.39">
        <route edges="E19 E15 E11"/>
    </vehicle>
    <vehicle id="E22_7.35" type="CarA" depart="31.50">
        <route edges="E22 E5 E7"/>
    </vehicle>
    <vehicle id="E16_25.11" type="CarA" depart="31.68">
        <route edges="E16 E21 E25"/>
    </vehicle>
    <vehicle id="E3_13.22" type="CarA" depart="31.68">
        <route edges="E3 E6 E13"/>
    </vehicle>
    <vehicle id="E1_23.31" type="CarA" depart="31.87">
        <route edges="E1 E2 E23"/>
    </vehicle>
    <vehicle id="E19_11.49" type="CarA" depart="32.05">
        <route edges="E19 E15 E11"/>
    </vehicle>
    <vehicle id="E10_18.9" type="CarA" depart="32.40">
        <route edges="E10 E14 E18"/>
    </vehicle>
    <vehicle id="E22_7.36" type="CarA" depart="32.40">
        <route edges="E22 E5 E7"/>
    </vehicle>
    <vehicle id="E19_11.50" type="CarA" depart="32.70">
        <route edges="E19 E15 E11"/>
    </vehicle>
    <vehicle id="E1_23.32" type="CarA" depart="32.90">
        <route edges="E1 E2 E23"/>
    </vehicle>
    <vehicle id="E24_17.16" type="CarA" depart="32.91">
        <route edges="E24 E20 E17"/>
    </vehicle>
    <vehicle id="E3_13.23" type="CarA" depart="33.12">
        <route edges="E3 E6 E13"/>
    </vehicle>
    <vehicle id="E22_7.37" type="CarA" depart="33.30">
        <route edges="E22 E5 E7"/>
    </vehicle>
    <vehicle id="E19_11.51" type="CarA" depart="33.35">
        <route edges="E19 E15 E11"/>
    </vehicle>
    <vehicle id="E12_9.14" type="CarA" depart="33.60">
        <route edges="E12 E8 E9"/>
    </vehicle>
    <vehicle id="E1_23.33" type="CarA" depart="33.92">
        <route edges="E1 E2 E23"/>
    </vehicle>
    <vehicle id="E19_11.52" type="CarA" depart="34.01">
        <route edges="E19 E15 E11"/>
    </vehicle>
    <vehicle id="E22_7.38" type="CarA" depart="34.20">
        <route edges="E22 E5 E7"/>
    </vehicle>
    <vehicle id="E16_25.12" type="CarA" depart="34.56">
        <route edges="E16 E21 E25"/>
    </vehicle>
    <vehicle id="E3_13.24" type="CarA" depart="34.56">
        <route edges="E3 E6 E13"/>
    </vehicle>
    <vehicle id="E19_11.53" type="CarA" depart="34.66">
        <route edges="E19 E15 E11"/>
    </vehicle>
    <vehicle id="E1_23.34" type="CarA" depart="34.95">
        <route edges="E1 E2 E23"/>
    </vehicle>
    <vehicle id="E24_17.17" type="CarA" depart="34.97">
        <route edges="E24 E20 E17"/>
    </vehicle>
    <vehicle id="E22_7.39" type="CarA" depart="35.10">
        <route edges="E22 E5 E7"/>
    </vehicle>
    <vehicle id="E19_11.54" type="CarA" depart="35.32">
        <route edges="E19 E15 E11"/>
    </vehicle>
    <vehicle id="E19_11.55" type="CarA" depart="35.97">
        <route edges="E19 E15 E11"/>
    </vehicle>
    <vehicle id="E1_23.35" type="CarA" depart="35.98">
        <route edges="E1 E2 E23"/>
    </vehicle>
    <vehicle id="E10_18.10" type="CarA" depart="36.00">
        <route edges="E10 E14 E18"/>
    </vehicle>
    <vehicle id="E12_9.15" type="CarA" depart="36.00">
        <route edges="E12 E8 E9"/>
    </vehicle>
    <vehicle id="E22_7.40" type="CarA" depart="36.00">
        <route edges="E22 E5 E7"/>
    </vehicle>
    <vehicle id="E3_13.25" type="CarA" depart="36.00">
        <route edges="E3 E6 E13"/>
    </vehicle>
    <vehicle id="E19_11.56" type="CarA" depart="36.62">
        <route edges="E19 E15 E11"/>
    </vehicle>
    <vehicle id="E22_7.41" type="CarA" depart="36.90">
        <route edges="E22 E5 E7"/>
    </vehicle>
    <vehicle id="E1_23.36" type="CarA" depart="37.01">
        <route edges="E1 E2 E23"/>
    </vehicle>
    <vehicle id="E24_17.18" type="CarA" depart="37.03">
        <route edges="E24 E20 E17"/>
    </vehicle>
    <vehicle id="E19_11.57" type="CarA" depart="37.28">
        <route edges="E19 E15 E11"/>
    </vehicle>
    <vehicle id="E16_25.13" type="CarA" depart="37.44">
        <route edges="E16 E21 E25"/>
    </vehicle>
    <vehicle id="E3_13.26" type="CarA" depart="37.44">
        <route edges="E3 E6 E13"/>
    </vehicle>
    <vehicle id="E22_7.42" type="CarA" depart="37.80">
        <route edges="E22 E5 E7"/>
    </vehicle>
    <vehicle id="E19_11.58" type="CarA" depart="37.93">
        <route edges="E19 E15 E11"/>
    </vehicle>
    <vehicle id="E1_23.37" type="CarA" depart="38.04">
        <route edges="E1 E2 E23"/>
    </vehicle>
    <vehicle id="E12_9.16" type="CarA" depart="38.40">
        <route edges="E12 E8 E9"/>
    </vehicle>
    <vehicle id="E19_11.59" type="CarA" depart="38.59">
        <route edges="E19 E15 E11"/>
    </vehicle>
    <vehicle id="E22_7.43" type="CarA" depart="38.70">
        <route edges="E22 E5 E7"/>
    </vehicle>
    <vehicle id="E3_13.27" type="CarA" depart="38.88">
        <route edges="E3 E6 E13"/>
    </vehicle>
    <vehicle id="E1_23.38" type="CarA" depart="39.06">
        <route edges="E1 E2 E23"/>
    </vehicle>
    <vehicle id="E24_17.19" type="CarA" depart="39.08">
        <route edges="E24 E20 E17"/>
    </vehicle>
    <vehicle id="E19_11.60" type="CarA" depart="39.24">
        <route edges="E19 E15 E11"/>
    </vehicle>
    <vehicle id="E10_18.11" type="CarA" depart="39.60">
        <route edges="E10 E14 E18"/>
    </vehicle>
    <vehicle id="E22_7.44" type="CarA" depart="39.60">
        <route edges="E22 E5 E7"/>
    </vehicle>
    <vehicle id="E19_11.61" type="CarA" depart="39.89">
        <route edges="E19 E15 E11"/>
    </vehicle>
    <vehicle id="E1_23.39" type="CarA" depart="40.09">
        <route edges="E1 E2 E23"/>
    </vehicle>
    <vehicle id="E16_25.14" type="CarA" depart="40.32">
        <route edges="E16 E21 E25"/>
    </vehicle>
    <vehicle id="E3_13.28" type="CarA" depart="40.32">
        <route edges="E3 E6 E13"/>
    </vehicle>
    <vehicle id="E22_7.45" type="CarA" depart="40.50">
        <route edges="E22 E5 E7"/>
    </vehicle>
    <vehicle id="E19_11.62" type="CarA" depart="40.55">
        <route edges="E19 E15 E11"/>
    </vehicle>
    <vehicle id="E12_9.17" type="CarA" depart="40.80">
        <route edges="E12 E8 E9"/>
    </vehicle>
    <vehicle id="E1_23.40" type="CarA" depart="41.12">
        <route edges="E1 E2 E23"/>
    </vehicle>
    <vehicle id="E24_17.20" type="CarA" depart="41.14">
        <route edges="E24 E20 E17"/>
    </vehicle>
    <vehicle id="E19_11.63" type="CarA" depart="41.20">
        <route edges="E19 E15 E11"/>
    </vehicle>
    <vehicle id="E22_7.46" type="CarA" depart="41.40">
        <route edges="E22 E5 E7"/>
    </vehicle>
    <vehicle id="E3_13.29" type="CarA" depart="41.76">
        <route edges="E3 E6 E13"/>
    </vehicle>
    <vehicle id="E19_11.64" type="CarA" depart="41.86">
        <route edges="E19 E15 E11"/>
    </vehicle>
    <vehicle id="E1_23.41" type="CarA" depart="42.15">
        <route edges="E1 E2 E23"/>
    </vehicle>
    <vehicle id="E22_7.47" type="CarA" depart="42.30">
        <route edges="E22 E5 E7"/>
    </vehicle>
    <vehicle id="E19_11.65" type="CarA" depart="42.51">
        <route edges="E19 E15 E11"/>
    </vehicle>
    <vehicle id="E19_11.66" type="CarA" depart="43.16">
        <route edges="E19 E15 E11"/>
    </vehicle>
    <vehicle id="E1_23.42" type="CarA" depart="43.18">
        <route edges="E1 E2 E23"/>
    </vehicle>
    <vehicle id="E24_17.21" type="CarA" depart="43.20">
        <route edges="E24 E20 E17"/>
    </vehicle>
    <vehicle id="E10_18.12" type="CarA" depart="43.20">
        <route edges="E10 E14 E18"/>
    </vehicle>
    <vehicle id="E12_9.18" type="CarA" depart="43.20">
        <route edges="E12 E8 E9"/>
    </vehicle>
    <vehicle id="E16_25.15" type="CarA" depart="43.20">
        <route edges="E16 E21 E25"/>
    </vehicle>
    <vehicle id="E22_7.48" type="CarA" depart="43.20">
        <route edges="E22 E5 E7"/>
    </vehicle>
    <vehicle id="E3_13.30" type="CarA" depart="43.20">
        <route edges="E3 E6 E13"/>
    </vehicle>
    <vehicle id="E19_11.67" type="CarA" depart="43.82">
        <route edges="E19 E15 E11"/>
    </vehicle>
    <vehicle id="E22_7.49" type="CarA" depart="44.10">
        <route edges="E22 E5 E7"/>
    </vehicle>
    <vehicle id="E1_23.43" type="CarA" depart="44.20">
        <route edges="E1 E2 E23"/>
    </vehicle>
    <vehicle id="E19_11.68" type="CarA" depart="44.47">
        <route edges="E19 E15 E11"/>
    </vehicle>
    <vehicle id="E3_13.31" type="CarA" depart="44.64">
        <route edges="E3 E6 E13"/>
    </vehicle>
    <vehicle id="E22_7.50" type="CarA" depart="45.00">
        <route edges="E22 E5 E7"/>
    </vehicle>
    <vehicle id="E19_11.69" type="CarA" depart="45.13">
        <route edges="E19 E15 E11"/>
    </vehicle>
    <vehicle id="E1_23.44" type="CarA" depart="45.23">
        <route edges="E1 E2 E23"/>
    </vehicle>
    <vehicle id="E24_17.22" type="CarA" depart="45.25">
        <route edges="E24 E20 E17"/>
    </vehicle>
    <vehicle id="E12_9.19" type="CarA" depart="45.60">
        <route edges="E12 E8 E9"/>
    </vehicle>
    <vehicle id="E19_11.70" type="CarA" depart="45.78">
        <route edges="E19 E15 E11"/>
    </vehicle>
    <vehicle id="E22_7.51" type="CarA" depart="45.90">
        <route edges="E22 E5 E7"/>
    </vehicle>
    <vehicle id="E16_25.16" type="CarA" depart="46.08">
        <route edges="E16 E21 E25"/>
    </vehicle>
    <vehicle id="E3_13.32" type="CarA" depart="46.08">
        <route edges="E3 E6 E13"/>
    </vehicle>
    <vehicle id="E1_23.45" type="CarA" depart="46.26">
        <route edges="E1 E2 E23"/>
    </vehicle>
    <vehicle id="E19_11.71" type="CarA" depart="46.43">
        <route edges="E19 E15 E11"/>
    </vehicle>
    <vehicle id="E10_18.13" type="CarA" depart="46.80">
        <route edges="E10 E14 E18"/>
    </vehicle>