<?xml version="1.0" encoding="UTF-8"?>

<!-- generated on 12/19/17 17:03:20 by SUMO duarouter Version 0.24.0
<?xml version="1.0" encoding="UTF-8"?>

<configuration xmlns:xsi="http://www.w3.org/2001/XMLSchema-instance" xsi:noNamespaceSchemaLocation="http://sumo.dlr.de/xsd/duarouterConfiguration.xsd">

    <input>
        <net-file value="net.xml"/>
        <flow-files value="flows.xml"/>
    </input>

    <output>
        <output-file value="flow.rou.xml"/>
    </output>

</configuration>
-->

<routes>
    <vType id="CarA" length="5.00" minGap="2.50" maxSpeed="60.00" color="red">
        <carFollowing-Krauss accel="10.00" decel="4.00" sigma="0.50"/>
    </vType>
    <vehicle id="E0_12.0" type="CarA" depart="0.00">
        <route edges="E0 E4 E8 E12"/>
    </vehicle>
    <vehicle id="E11_47.0" type="CarA" depart="0.00">
        <route edges="E11 E25 E39 E47"/>
    </vehicle>
    <vehicle id="E13_1.0" type="CarA" depart="0.00">
        <route edges="E13 E9 E5 E1"/>
    </vehicle>
    <vehicle id="E14_26.0" type="CarA" depart="0.00">
        <route edges="E14 E18 E22 E26"/>
    </vehicle>
    <vehicle id="E27_15.0" type="CarA" depart="0.00">
        <route edges="E27 E23 E19 E15"/>
    </vehicle>
    <vehicle id="E28_40.0" type="CarA" depart="0.00">
        <route edges="E28 E32 E36 E40"/>
    </vehicle>
    <vehicle id="E3_43.0" type="CarA" depart="0.00">
        <route edges="E3 E17 E31 E43"/>
    </vehicle>
    <vehicle id="E41_29.0" type="CarA" depart="0.00">
        <route edges="E41 E37 E33 E29"/>
    </vehicle>
    <vehicle id="E42_2.0" type="CarA" depart="0.00">
        <route edges="E42 E30 E16 E2"/>
    </vehicle>
    <vehicle id="E44_6.0" type="CarA" depart="0.00">
        <route edges="E44 E34 E20 E6"/>
    </vehicle>
    <vehicle id="E46_10.0" type="CarA" depart="0.00">
        <route edges="E46 E38 E24 E10"/>
    </vehicle>
    <vehicle id="E7_45.0" type="CarA" depart="0.00">
        <route edges="E7 E21 E35 E45"/>
    </vehicle>
    <vehicle id="E27_15.1" type="CarA" depart="1.33">
        <route edges="E27 E23 E19 E15"/>
    </vehicle>
    <vehicle id="E7_45.1" type="CarA" depart="1.41">
        <route edges="E7 E21 E35 E45"/>
    </vehicle>
    <vehicle id="E13_1.1" type="CarA" depart="1.50">
        <route edges="E13 E9 E5 E1"/>
    </vehicle>
    <vehicle id="E44_6.1" type="CarA" depart="1.59">
        <route edges="E44 E34 E20 E6"/>
    </vehicle>
    <vehicle id="E0_12.1" type="CarA" depart="1.71">
        <route edges="E0 E4 E8 E12"/>
    </vehicle>
    <vehicle id="E46_10.1" type="CarA" depart="2.06">
        <route edges="E46 E38 E24 E10"/>
    </vehicle>
    <vehicle id="E3_43.1" type="CarA" depart="2.32">
        <route edges="E3 E17 E31 E43"/>
    </vehicle>
    <vehicle id="E28_40.1" type="CarA" depart="2.40">
        <route edges="E28 E32 E36 E40"/>
    </vehicle>
    <vehicle id="E27_15.2" type="CarA" depart="2.67">
        <route edges="E27 E23 E19 E15"/>
    </vehicle>
    <vehicle id="E7_45.2" type="CarA" depart="2.82">
        <route edges="E7 E21 E35 E45"/>
    </vehicle>
    <vehicle id="E13_1.2" type="CarA" depart="3.00">
        <route edges="E13 E9 E5 E1"/>
    </vehicle>
    <vehicle id="E42_2.1" type="CarA" depart="3.00">
        <route edges="E42 E30 E16 E2"/>
    </vehicle>
    <vehicle id="E44_6.2" type="CarA" depart="3.18">
        <route edges="E44 E34 E20 E6"/>
    </vehicle>
    <vehicle id="E41_29.1" type="CarA" depart="3.27">
        <route edges="E41 E37 E33 E29"/>
    </vehicle>
    <vehicle id="E0_12.2" type="CarA" depart="3.43">
        <route edges="E0 E4 E8 E12"/>
    </vehicle>
    <vehicle id="E11_47.1" type="CarA" depart="3.64">
        <route edges="E11 E25 E39 E47"/>
    </vehicle>
    <vehicle id="E27_15.3" type="CarA" depart="4.00">
        <route edges="E27 E23 E19 E15"/>
    </vehicle>
    <vehicle id="E14_26.1" type="CarA" depart="4.00">
        <route edges="E14 E18 E22 E26"/>
    </vehicle>
    <vehicle id="E46_10.2" type="CarA" depart="4.11">
        <route edges="E46 E38 E24 E10"/>
    </vehicle>
    <vehicle id="E7_45.3" type="CarA" depart="4.23">
        <route edges="E7 E21 E35 E45"/>
    </vehicle>
    <vehicle id="E13_1.3" type="CarA" depart="4.50">
        <route edges="E13 E9 E5 E1"/>
    </vehicle>
    <vehicle id="E3_43.2" type="CarA" depart="4.64">
        <route edges="E3 E17 E31 E43"/>
    </vehicle>
    <vehicle id="E44_6.3" type="CarA" depart="4.78">
        <route edges="E44 E34 E20 E6"/>
    </vehicle>
    <vehicle id="E28_40.2" type="CarA" depart="4.80">
        <route edges="E28 E32 E36 E40"/>
    </vehicle>
    <vehicle id="E0_12.3" type="CarA" depart="5.14">
        <route edges="E0 E4 E8 E12"/>
    </vehicle>
    <vehicle id="E27_15.4" type="CarA" depart="5.33">
        <route edges="E27 E23 E19 E15"/>
    </vehicle>
    <vehicle id="E7_45.4" type="CarA" depart="5.64">
        <route edges="E7 E21 E35 E45"/>
    </vehicle>
    <vehicle id="E13_1.4" type="CarA" depart="6.00">
        <route edges="E13 E9 E5 E1"/>
    </vehicle>
    <vehicle id="E42_2.2" type="CarA" depart="6.00">
        <route edges="E42 E30 E16 E2"/>
    </vehicle>
    <vehicle id="E46_10.3" type="CarA" depart="6.17">
        <route edges="E46 E38 E24 E10"/>
    </vehicle>
    <vehicle id="E44_6.4" type="CarA" depart="6.37">
        <route edges="E44 E34 E20 E6"/>
    </vehicle>
    <vehicle id="E41_29.2" type="CarA" depart="6.54">
        <route edges="E41 E37 E33 E29"/>
    </vehicle>
    <vehicle id="E27_15.5" type="CarA" depart="6.67">
        <route edges="E27 E23 E19 E15"/>
    </vehicle>
    <vehicle id="E0_12.4" type="CarA" depart="6.86">
        <route edges="E0 E4 E8 E12"/>
    </vehicle>
    <vehicle id="E3_43.3" type="CarA" depart="6.97">
        <route edges="E3 E17 E31 E43"/>
    </vehicle>
    <vehicle id="E7_45.5" type="CarA" depart="7.05">
        <route edges="E7 E21 E35 E45"/>
    </vehicle>
    <vehicle id="E28_40.3" type="CarA" depart="7.20">
        <route edges="E28 E32 E36 E40"/>
    </vehicle>
    <vehicle id="E11_47.2" type="CarA" depart="7.27">
        <route edges="E11 E25 E39 E47"/>
    </vehicle>
    <vehicle id="E13_1.5" type="CarA" depart="7.50">
        <route edges="E13 E9 E5 E1"/>
    </vehicle>
    <vehicle id="E44_6.5" type="CarA" depart="7.96">
        <route edges="E44 E34 E20 E6"/>
    </vehicle>
    <vehicle id="E27_15.6" type="CarA" depart="8.00">
        <route edges="E27 E23 E19 E15"/>
    </vehicle>
    <vehicle id="E14_26.2" type="CarA" depart="8.00">
        <route edges="E14 E18 E22 E26"/>
    </vehicle>
    <vehicle id="E46_10.4" type="CarA" depart="8.23">
        <route edges="E46 E38 E24 E10"/>
    </vehicle>
    <vehicle id="E7_45.6" type="CarA" depart="8.47">
        <route edges="E7 E21 E35 E45"/>
    </vehicle>
    <vehicle id="E0_12.5" type="CarA" depart="8.57">
        <route edges="E0 E4 E8 E12"/>
    </vehicle>
    <vehicle id="E13_1.6" type="CarA" depart="9.00">
        <route edges="E13 E9 E5 E1"/>
    </vehicle>
    <vehicle id="E42_2.3" type="CarA" depart="9.00">
        <route edges="E42 E30 E16 E2"/>
    </vehicle>
    <vehicle id="E3_43.4" type="CarA" depart="9.29">
        <route edges="E3 E17 E31 E43"/>
    </vehicle>
    <vehicle id="E27_15.7" type="CarA" depart="9.33">
        <route edges="E27 E23 E19 E15"/>
    </vehicle>
    <vehicle id="E44_6.6" type="CarA" depart="9.55">
        <route edges="E44 E34 E20 E6"/>
    </vehicle>
    <vehicle id="E28_40.4" type="CarA" depart="9.60">
        <route edges="E28 E32 E36 E40"/>
    </vehicle>
    <vehicle id="E41_29.3" type="CarA" depart="9.82">
        <route edges="E41 E37 E33 E29"/>
    </vehicle>
    <vehicle id="E7_45.7" type="CarA" depart="9.88">
        <route edges="E7 E21 E35 E45"/>
    </vehicle>
    <vehicle id="E0_12.6" type="CarA" depart="10.28">
        <route edges="E0 E4 E8 E12"/>
    </vehicle>
    <vehicle id="E46_10.5" type="CarA" depart="10.29">
        <route edges="E46 E38 E24 E10"/>
    </vehicle>
    <vehicle id="E13_1.7" type="CarA" depart="10.50">
        <route edges="E13 E9 E5 E1"/>
    </vehicle>
    <vehicle id="E27_15.8" type="CarA" depart="10.66">
        <route edges="E27 E23 E19 E15"/>
    </vehicle>
    <vehicle id="E11_47.3" type="CarA" depart="10.91">
        <route edges="E11 E25 E39 E47"/>
    </vehicle>
    <vehicle id="E44_6.7" type="CarA" depart="11.14">
        <route edges="E44 E34 E20 E6"/>
    </vehicle>
    <vehicle id="E7_45.8" type="CarA" depart="11.29">
        <route edges="E7 E21 E35 E45"/>
    </vehicle>
    <vehicle id="E3_43.5" type="CarA" depart="11.61">
        <route edges="E3 E17 E31 E43"/>
    </vehicle>
    <vehicle id="E27_15.9" type="CarA" depart="12.00">
        <route edges="E27 E23 E19 E15"/>
    </vehicle>
    <vehicle id="E0_12.7" type="CarA" depart="12.00">
        <route edges="E0 E4 E8 E12"/>
    </vehicle>
    <vehicle id="E13_1.8" type="CarA" depart="12.00">
        <route edges="E13 E9 E5 E1"/>
    </vehicle>
    <vehicle id="E14_26.3" type="CarA" depart="12.00">
        <route edges="E14 E18 E22 E26"/>
    </vehicle>
    <vehicle id="E28_40.5" type="CarA" depart="12.00">
        <route edges="E28 E32 E36 E40"/>
    </vehicle>
    <vehicle id="E42_2.4" type="CarA" depart="12.00">
        <route edges="E42 E30 E16 E2"/>
    </vehicle>
    <vehicle id="E46_10.6" type="CarA" depart="12.34">
        <route edges="E46 E38 E24 E10"/>
    </vehicle>
    <vehicle id="E7_45.9" type="CarA" depart="12.70">
        <route edges="E7 E21 E35 E45"/>
    </vehicle>
    <vehicle id="E44_6.8" type="CarA" depart="12.74">
        <route edges="E44 E34 E20 E6"/>
    </vehicle>
    <vehicle id="E41_29.4" type="CarA" depart="13.09">
        <route edges="E41 E37 E33 E29"/>
    </vehicle>
    <vehicle id="E27_15.10" type="CarA" depart="13.33">
        <route edges="E27 E23 E19 E15"/>
    </vehicle>
    <vehicle id="E13_1.9" type="CarA" depart="13.50">
        <route edges="E13 E9 E5 E1"/>
    </vehicle>
    <vehicle id="E0_12.8" type="CarA" depart="13.71">
        <route edges="E0 E4 E8 E12"/>
    </vehicle>
    <vehicle id="E3_43.6" type="CarA" depart="13.93">
        <route edges="E3 E17 E31 E43"/>
    </vehicle>
    <vehicle id="E7_45.10" type="CarA" depart="14.11">
        <route edges="E7 E21 E35 E45"/>
    </vehicle>
    <vehicle id="E44_6.9" type="CarA" depart="14.33">
        <route edges="E44 E34 E20 E6"/>
    </vehicle>
    <vehicle id="E46_10.7" type="CarA" depart="14.40">
        <route edges="E46 E38 E24 E10"/>
    </vehicle>
    <vehicle id="E28_40.6" type="CarA" depart="14.40">
        <route edges="E28 E32 E36 E40"/>
    </vehicle>
    <vehicle id="E11_47.4" type="CarA" depart="14.54">
        <route edges="E11 E25 E39 E47"/>
    </vehicle>
    <vehicle id="E27_15.11" type="CarA" depart="14.66">
        <route edges="E27 E23 E19 E15"/>
    </vehicle>
    <vehicle id="E13_1.10" type="CarA" depart="15.00">
        <route edges="E13 E9 E5 E1"/>
    </vehicle>
    <vehicle id="E42_2.5" type="CarA" depart="15.00">
        <route edges="E42 E30 E16 E2"/>
    </vehicle>
    <vehicle id="E0_12.9" type="CarA" depart="15.43">
        <route edges="E0 E4 E8 E12"/>
    </vehicle>
    <vehicle id="E7_45.11" type="CarA" depart="15.52">
        <route edges="E7 E21 E35 E45"/>
    </vehicle>
    <vehicle id="E44_6.10" type="CarA" depart="15.92">
        <route edges="E44 E34 E20 E6"/>
    </vehicle>
    <vehicle id="E27_15.12" type="CarA" depart="16.00">
        <route edges="E27 E23 E19 E15"/>
    </vehicle>
    <vehicle id="E14_26.4" type="CarA" depart="16.00">
        <route edges="E14 E18 E22 E26"/>
    </vehicle>
    <vehicle id="E3_43.7" type="CarA" depart="16.25">
        <route edges="E3 E17 E31 E43"/>
    </vehicle>
    <vehicle id="E41_29.5" type="CarA" depart="16.36">
        <route edges="E41 E37 E33 E29"/>
    </vehicle>
    <vehicle id="E46_10.8" type="CarA" depart="16.46">
        <route edges="E46 E38 E24 E10"/>
    </vehicle>
    <vehicle id="E13_1.11" type="CarA" depart="16.50">
        <route edges="E13 E9 E5 E1"/>
    </vehicle>
    <vehicle id="E28_40.7" type="CarA" depart="16.80">
        <route edges="E28 E32 E36 E40"/>
    </vehicle>
    <vehicle id="E7_45.12" type="CarA" depart="16.93">
        <route edges="E7 E21 E35 E45"/>
    </vehicle>
    <vehicle id="E0_12.10" type="CarA" depart="17.14">
        <route edges="E0 E4 E8 E12"/>
    </vehicle>
    <vehicle id="E27_15.13" type="CarA" depart="17.33">
        <route edges="E27 E23 E19 E15"/>
    </vehicle>
    <vehicle id="E44_6.11" type="CarA" depart="17.51">
        <route edges="E44 E34 E20 E6"/>
    </vehicle>
    <vehicle id="E13_1.12" type="CarA" depart="18.00">
        <route edges="E13 E9 E5 E1"/>
    </vehicle>
    <vehicle id="E42_2.6" type="CarA" depart="18.00">
        <route edges="E42 E30 E16 E2"/>
    </vehicle>
    <vehicle id="E11_47.5" type="CarA" depart="18.18">
        <route edges="E11 E25 E39 E47"/>
    </vehicle>
    <vehicle id="E7_45.13" type="CarA" depart="18.34">
        <route edges="E7 E21 E35 E45"/>
    </vehicle>
    <vehicle id="E46_10.9" type="CarA" depart="18.51">
        <route edges="E46 E38 E24 E10"/>
    </vehicle>
    <vehicle id="E3_43.8" type="CarA" depart="18.58">
        <route edges="E3 E17 E31 E43"/>
    </vehicle>
    <vehicle id="E27_15.14" type="CarA" depart="18.66">
        <route edges="E27 E23 E19 E15"/>
    </vehicle>
    <vehicle id="E0_12.11" type="CarA" depart="18.85">
        <route edges="E0 E4 E8 E12"/>
    </vehicle>
    <vehicle id="E44_6.12" type="CarA" depart="19.10">
        <route edges="E44 E34 E20 E6"/>
    </vehicle>
    <vehicle id="E28_40.8" type="CarA" depart="19.20">
        <route edges="E28 E32 E36 E40"/>
    </vehicle>
    <vehicle id="E13_1.13" type="CarA" depart="19.50">
        <route edges="E13 E9 E5 E1"/>
    </vehicle>
    <vehicle id="E41_29.6" type="CarA" depart="19.63">
        <route edges="E41 E37 E33 E29"/>
    </vehicle>
    <vehicle id="E7_45.14" type="CarA" depart="19.75">
        <route edges="E7 E21 E35 E45"/>
    </vehicle>
    <vehicle id="E27_15.15" type="CarA" depart="20.00">
        <route edges="E27 E23 E19 E15"/>
    </vehicle>
    <vehicle id="E14_26.5" type="CarA" depart="20.00">
        <route edges="E14 E18 E22 E26"/>
    </vehicle>
    <vehicle id="E0_12.12" type="CarA" depart="20.57">
        <route edges="E0 E4 E8 E12"/>
    </vehicle>
    <vehicle id="E46_10.10" type="CarA" depart="20.57">
        <route edges="E46 E38 E24 E10"/>
    </vehicle>
    <vehicle id="E44_6.13" type="CarA" depart="20.70">
        <route edges="E44 E34 E20 E6"/>
    </vehicle>
    <vehicle id="E3_43.9" type="CarA" depart="20.90">
        <route edges="E3 E17 E31 E43"/>
    </vehicle>
    <vehicle id="E13_1.14" type="CarA" depart="21.00">
        <route edges="E13 E9 E5 E1"/>
    </vehicle>
    <vehicle id="E42_2.7" type="CarA" depart="21.00">
        <route edges="E42 E30 E16 E2"/>
    </vehicle>
    <vehicle id="E7_45.15" type="CarA" depart="21.16">
        <route edges="E7 E21 E35 E45"/>
    </vehicle>
    <vehicle id="E27_15.16" type="CarA" depart="21.33">
        <route edges="E27 E23 E19 E15"/>
    </vehicle>
    <vehicle id="E28_40.9" type="CarA" depart="21.60">
        <route edges="E28 E32 E36 E40"/>
    </vehicle>
    <vehicle id="E11_47.6" type="CarA" depart="21.82">
        <route edges="E11 E25 E39 E47"/>
    </vehicle>
    <vehicle id="E0_12.13" type="CarA" depart="22.28">
        <route edges="E0 E4 E8 E12"/>
    </vehicle>
    <vehicle id="E44_6.14" type="CarA" depart="22.29">
        <route edges="E44 E34 E20 E6"/>
    </vehicle>
    <vehicle id="E13_1.15" type="CarA" depart="22.50">
        <route edges="E13 E9 E5 E1"/>
    </vehicle>
    <vehicle id="E7_45.16" type="CarA" depart="22.58">
        <route edges="E7 E21 E35 E45"/>
    </vehicle>
    <vehicle id="E46_10.11" type="CarA" depart="22.63">
        <route edges="E46 E38 E24 E10"/>
    </vehicle>
    <vehicle id="E27_15.17" type="CarA" depart="22.66">
        <route edges="E27 E23 E19 E15"/>
    </vehicle>
    <vehicle id="E41_29.7" type="CarA" depart="22.90">
        <route edges="E41 E37 E33 E29"/>
    </vehicle>
    <vehicle id="E3_43.10" type="CarA" depart="23.22">
        <route edges="E3 E17 E31 E43"/>
    </vehicle>
    <vehicle id="E44_6.15" type="CarA" depart="23.88">
        <route edges="E44 E34 E20 E6"/>
    </vehicle>
    <vehicle id="E7_45.17" type="CarA" depart="23.99">
        <route edges="E7 E21 E35 E45"/>
    </vehicle>
    <vehicle id="E27_15.18" type="CarA" depart="23.99">
        <route edges="E27 E23 E19 E15"/>
    </vehicle>
    <vehicle id="E0_12.14" type="CarA" depart="24.00">
        <route edges="E0 E4 E8 E12"/>
    </vehicle>
    <vehicle id="E13_1.16" type="CarA" depart="24.00">
        <route edges="E13 E9 E5 E1"/>
    </vehicle>
    <vehicle id="E14_26.6" type="CarA" depart="24.00">
        <route edges="E14 E18 E22 E26"/>
    </vehicle>
    <vehicle id="E28_40.10" type="CarA" depart="24.00">
        <route edges="E28 E32 E36 E40"/>
    </vehicle>
    <vehicle id="E42_2.8" type="CarA" depart="24.00">
        <route edges="E42 E30 E16 E2"/>
    </vehicle>
    <vehicle id="E46_10.12" type="CarA" depart="24.68">
        <route edges="E46 E38 E24 E10"/>
    </vehicle>
    <vehicle id="E27_15.19" type="CarA" depart="25.33">
        <route edges="E27 E23 E19 E15"/>
    </vehicle>
    <vehicle id="E7_45.18" type="CarA" depart="25.40">
        <route edges="E7 E21 E35 E45"/>
    </vehicle>
    <vehicle id="E11_47.7" type="CarA" depart="25.45">
        <route edges="E11 E25 E39 E47"/>
    </vehicle>
    <vehicle id="E44_6.16" type="CarA" depart="25.47">
        <route edges="E44 E34 E20 E6"/>
    </vehicle>
    <vehicle id="E13_1.17" type="CarA" depart="25.50">
        <route edges="E13 E9 E5 E1"/>
    </vehicle>
    <vehicle id="E3_43.11" type="CarA" depart="25.54">
        <route edges="E3 E17 E31 E43"/>
    </vehicle>
    <vehicle id="E0_12.15" type="CarA" depart="25.71">
        <route edges="E0 E4 E8 E12"/>
    </vehicle>
    <vehicle id="E41_29.8" type="CarA" depart="26.18">
        <route edges="E41 E37 E33 E29"/>
    </vehicle>
    <vehicle id="E28_40.11" type="CarA" depart="26.40">
        <route edges="E28 E32 E36 E40"/>
    </vehicle>
    <vehicle id="E27_15.20" type="CarA" depart="26.66">
        <route edges="E27 E23 E19 E15"/>
    </vehicle>
    <vehicle id="E46_10.13" type="CarA" depart="26.74">
        <route edges="E46 E38 E24 E10"/>
    </vehicle>
    <vehicle id="E7_45.19" type="CarA" depart="26.81">
        <route edges="E7 E21 E35 E45"/>
    </vehicle>
    <vehicle id="E13_1.18" type="CarA" depart="27.00">
        <route edges="E13 E9 E5 E1"/>
    </vehicle>
    <vehicle id="E42_2.9" type="CarA" depart="27.00">
        <route edges="E42 E30 E16 E2"/>
    </vehicle>
    <vehicle id="E44_6.17" type="CarA" depart="27.06">
        <route edges="E44 E34 E20 E6"/>
    </vehicle>
    <vehicle id="E0_12.16" type="CarA" depart="27.42">
        <route edges="E0 E4 E8 E12"/>
    </vehicle>
    <vehicle id="E3_43.12" type="CarA" depart="27.86">
        <route edges="E3 E17 E31 E43"/>
    </vehicle>
    <vehicle id="E27_15.21" type="CarA" depart="27.99">
        <route edges="E27 E23 E19 E15"/>
    </vehicle>
    <vehicle id="E14_26.7" type="CarA" depart="28.00">
        <route edges="E14 E18 E22 E26"/>
    </vehicle>
    <vehicle id="E7_45.20" type="CarA" depart="28.22">
        <route edges="E7 E21 E35 E45"/>
    </vehicle>
    <vehicle id="E13_1.19" type="CarA" depart="28.50">
        <route edges="E13 E9 E5 E1"/>
    </vehicle>
    <vehicle id="E44_6.18" type="CarA" depart="28.66">
        <route edges="E44 E34 E20 E6"/>
    </vehicle>
    <vehicle id="E46_10.14" type="CarA" depart="28.80">
        <route edges="E46 E38 E24 E10"/>
    </vehicle>
    <vehicle id="E28_40.12" type="CarA" depart="28.80">
        <route edges="E28 E32 E36 E40"/>
    </vehicle>
    <vehicle id="E11_47.8" type="CarA" depart="29.09">
        <route edges="E11 E25 E39 E47"/>
    </vehicle>
    <vehicle id="E0_12.17" type="CarA" depart="29.14">
        <route edges="E0 E4 E8 E12"/>
    </vehicle>
    <vehicle id="E27_15.22" type="CarA" depart="29.33">
        <route edges="E27 E23 E19 E15"/>
    </vehicle>
    <vehicle id="E41_29.9" type="CarA" depart="29.45">
        <route edges="E41 E37 E33 E29"/>
    </vehicle>
    <vehicle id="E7_45.21" type="CarA" depart="29.63">
        <route edges="E7 E21 E35 E45"/>
    </vehicle>
    <vehicle id="E13_1.20" type="CarA" depart="30.00">
        <route edges="E13 E9 E5 E1"/>
    </vehicle>
    <vehicle id="E42_2.10" type="CarA" depart="30.00">
        <route edges="E42 E30 E16 E2"/>
    </vehicle>
    <vehicle id="E3_43.13" type="CarA" depart="30.19">
        <route edges="E3 E17 E31 E43"/>
    </vehicle>
    <vehicle id="E44_6.19" type="CarA" depart="30.25">
        <route edges="E44 E34 E20 E6"/>
    </vehicle>
    <vehicle id="E27_15.23" type="CarA" depart="30.66">
        <route edges="E27 E23 E19 E15"/>
    </vehicle>
    <vehicle id="E0_12.18" type="CarA" depart="30.85">
        <route edges="E0 E4 E8 E12"/>
    </vehicle>
    <vehicle id="E46_10.15" type="CarA" depart="30.86">
        <route edges="E46 E38 E24 E10"/>
    </vehicle>
    <vehicle id="E7_45.22" type="CarA" depart="31.04">
        <route edges="E7 E21 E35 E45"/>
    </vehicle>
    <vehicle id="E28_40.13" type="CarA" depart="31.20">
        <route edges="E28 E32 E36 E40"/>
    </vehicle>
    <vehicle id="E13_1.21" type="CarA" depart="31.50">
        <route edges="E13 E9 E5 E1"/>
    </vehicle>
    <vehicle id="E44_6.20" type="CarA" depart="31.84">
        <route edges="E44 E34 E20 E6"/>
    </vehicle>
    <vehicle id="E27_15.24" type="CarA" depart="31.99">
        <route edges="E27 E23 E19 E15"/>
    </vehicle>
    <vehicle id="E14_26.8" type="CarA" depart="32.00">
        <route edges="E14 E18 E22 E26"/>
    </vehicle>
    <vehicle id="E7_45.23" type="CarA" depart="32.45">
        <route edges="E7 E21 E35 E45"/>
    </vehicle>
    <vehicle id="E3_43.14" type="CarA" depart="32.51">
        <route edges="E3 E17 E31 E43"/>
    </vehicle>
    <vehicle id="E0_12.19" type="CarA" depart="32.57">
        <route edges="E0 E4 E8 E12"/>
    </vehicle>
    <vehicle id="E41_29.10" type="CarA" depart="32.72">
        <route edges="E41 E37 E33 E29"/>
    </vehicle>
    <vehicle id="E11_47.9" type="CarA" depart="32.72">
        <route edges="E11 E25 E39 E47"/>
    </vehicle>
    <vehicle id="E46_10.16" type="CarA" depart="32.91">
        <route edges="E46 E38 E24 E10"/>
    </vehicle>
    <vehicle id="E13_1.22" type="CarA" depart="33.00">
        <route edges="E13 E9 E5 E1"/>
    </vehicle>
    <vehicle id="E42_2.11" type="CarA" depart="33.00">
        <route edges="E42 E30 E16 E2"/>
    </vehicle>
    <vehicle id="E27_15.25" type="CarA" depart="33.33">
        <route edges="E27 E23 E19 E15"/>
    </vehicle>
    <vehicle id="E44_6.21" type="CarA" depart="33.43">
        <route edges="E44 E34 E20 E6"/>
    </vehicle>
    <vehicle id="E28_40.14" type="CarA" depart="33.60">
        <route edges="E28 E32 E36 E40"/>
    </vehicle>
    <vehicle id="E7_45.24" type="CarA" depart="33.86">
        <route edges="E7 E21 E35 E45"/>
    </vehicle>
    <vehicle id="E0_12.20" type="CarA" depart="34.28">
        <route edges="E0 E4 E8 E12"/>
    </vehicle>
    <vehicle id="E13_1.23" type="CarA" depart="34.50">
        <route edges="E13 E9 E5 E1"/>
    </vehicle>
    <vehicle id="E27_15.26" type="CarA" depart="34.66">
        <route edges="E27 E23 E19 E15"/>
    </vehicle>
    <vehicle id="E3_43.15" type="CarA" depart="34.83">
        <route edges="E3 E17 E31 E43"/>
    </vehicle>
    <vehicle id="E46_10.17" type="CarA" depart="34.97">
        <route edges="E46 E38 E24 E10"/>
    </vehicle>
    <vehicle id="E44_6.22" type="CarA" depart="35.02">
        <route edges="E44 E34 E20 E6"/>
    </vehicle>
    <vehicle id="E7_45.25" type="CarA" depart="35.27">
        <route edges="E7 E21 E35 E45"/>
    </vehicle>
    <vehicle id="E27_15.27" type="CarA" depart="35.99">
        <route edges="E27 E23 E19 E15"/>
    </vehicle>
    <vehicle id="E41_29.11" type="CarA" depart="35.99">
        <route edges="E41 E37 E33 E29"/>
    </vehicle>
    <vehicle id="E0_12.21" type="CarA" depart="35.99">
        <route edges="E0 E4 E8 E12"/>
    </vehicle>
    <vehicle id="E13_1.24" type="CarA" depart="36.00">
        <route edges="E13 E9 E5 E1"/>
    </vehicle>
    <vehicle id="E14_26.9" type="CarA" depart="36.00">
        <route edges="E14 E18 E22 E26"/>
    </vehicle>
    <vehicle id="E28_40.15" type="CarA" depart="36.00">
        <route edges="E28 E32 E36 E40"/>
    </vehicle>
    <vehicle id="E42_2.12" type="CarA" depart="36.00">
        <route edges="E42 E30 E16 E2"/>
    </vehicle>
    <vehicle id="E11_47.10" type="CarA" depart="36.36">
        <route edges="E11 E25 E39 E47"/>
    </vehicle>
    <vehicle id="E44_6.23" type="CarA" depart="36.62">
        <route edges="E44 E34 E20 E6"/>
    </vehicle>
    <vehicle id="E7_45.26" type="CarA" depart="36.69">
        <route edges="E7 E21 E35 E45"/>
    </vehicle>
    <vehicle id="E46_10.18" type="CarA" depart="37.03">
        <route edges="E46 E38 E24 E10"/>
    </vehicle>
    <vehicle id="E3_43.16" type="CarA" depart="37.15">
        <route edges="E3 E17 E31 E43"/>
    </vehicle>
    <vehicle id="E27_15.28" type="CarA" depart="37.32">
        <route edges="E27 E23 E19 E15"/>
    </vehicle>
    <vehicle id="E13_1.25" type="CarA" depart="37.50">
        <route edges="E13 E9 E5 E1"/>
    </vehicle>
    <vehicle id="E0_12.22" type="CarA" depart="37.71">
        <route edges="E0 E4 E8 E12"/>
    </vehicle>
    <vehicle id="E7_45.27" type="CarA" depart="38.10">
        <route edges="E7 E21 E35 E45"/>
    </vehicle>
    <vehicle id="E44_6.24" type="CarA" depart="38.21">
        <route edges="E44 E34 E20 E6"/>
    </vehicle>
    <vehicle id="E28_40.16" type="CarA" depart="38.40">
        <route edges="E28 E32 E36 E40"/>
    </vehicle>
    <vehicle id="E27_15.29" type="CarA" depart="38.66">
        <route edges="E27 E23 E19 E15"/>
    </vehicle>
    <vehicle id="E13_1.26" type="CarA" depart="39.00">
        <route edges="E13 E9 E5 E1"/>
    </vehicle>
    <vehicle id="E42_2.13" type="CarA" depart="39.00">
        <route edges="E42 E30 E16 E2"/>
    </vehicle>
    <vehicle id="E46_10.19" type="CarA" depart="39.08">
        <route edges="E46 E38 E24 E10"/>
    </vehicle>
    <vehicle id="E41_29.12" type="CarA" depart="39.26">
        <route edges="E41 E37 E33 E29"/>
    </vehicle>
    <vehicle id="E0_12.23" type="CarA" depart="39.42">
        <route edges="E0 E4 E8 E12"/>
    </vehicle>
    <vehicle id="E3_43.17" type="CarA" depart="39.47">
        <route edges="E3 E17 E31 E43"/>
    </vehicle>
    <vehicle id="E7_45.28" type="CarA" depart="39.51">
        <route edges="E7 E21 E35 E45"/>
    </vehicle>
    <vehicle id="E44_6.25" type="CarA" depart="39.80">
        <route edges="E44 E34 E20 E6"/>
    </vehicle>
    <vehicle id="E27_15.30" type="CarA" depart="39.99">
        <route edges="E27 E23 E19 E15"/>
    </vehicle>
    <vehicle id="E11_47.11" type="CarA" depart="40.00">
        <route edges="E11 E25 E39 E47"/>
    </vehicle>
    <vehicle id="E14_26.10" type="CarA" depart="40.00">
        <route edges="E14 E18 E22 E26"/>
    </vehicle>
    <vehicle id="E13_1.27" type="CarA" depart="40.50">
        <route edges="E13 E9 E5 E1"/>
    </vehicle>
    <vehicle id="E28_40.17" type="CarA" depart="40.80">
        <route edges="E28 E32 E36 E40"/>
    </vehicle>
    <vehicle id="E7_45.29" type="CarA" depart="40.92">
        <route edges="E7 E21 E35 E45"/>
    </vehicle>
    <vehicle id="E0_12.24" type="CarA" depart="41.14">
        <route edges="E0 E4 E8 E12"/>
    </vehicle>
    <vehicle id="E46_10.20" type="CarA" depart="41.14">
        <route edges="E46 E38 E24 E10"/>
    </vehicle>
    <vehicle id="E27_15.31" type="CarA" depart="41.32">
        <route edges="E27 E23 E19 E15"/>
    </vehicle>
    <vehicle id="E44_6.26" type="CarA" depart="41.39">
        <route edges="E44 E34 E20 E6"/>
    </vehicle>
    <vehicle id="E3_43.18" type="CarA" depart="41.80">
        <route edges="E3 E17 E31 E43"/>
    </vehicle>
    <vehicle id="E13_1.28" type="CarA" depart="42.00">
        <route edges="E13 E9 E5 E1"/>
    </vehicle>
    <vehicle id="E42_2.14" type="CarA" depart="42.00">
        <route edges="E42 E30 E16 E2"/>
    </vehicle>
    <vehicle id="E7_45.30" type="CarA" depart="42.33">
        <route edges="E7 E21 E35 E45"/>
    </vehicle>
    <vehicle id="E41_29.13" type="CarA" depart="42.54">
        <route edges="E41 E37 E33 E29"/>
    </vehicle>
    <vehicle id="E27_15.32" type="CarA" depart="42.66">
        <route edges="E27 E23 E19 E15"/>
    </vehicle>
    <vehicle id="E0_12.25" type="CarA" depart="42.85">
        <route edges="E0 E4 E8 E12"/>
    </vehicle>
    <vehicle id="E44_6.27" type="CarA" depart="42.98">
        <route edges="E44 E34 E20 E6"/>
    </vehicle>
    <vehicle id="E46_10.21" type="CarA" depart="43.20">
        <route edges="E46 E38 E24 E10"/>
    </vehicle>
    <vehicle id="E28_40.18" type="CarA" depart="43.20">
        <route edges="E28 E32 E36 E40"/>
    </vehicle>
    <vehicle id="E13_1.29" type="CarA" depart="43.50">
        <route edges="E13 E9 E5 E1"/>
    </vehicle>
    <vehicle id="E11_47.12" type="CarA" depart="43.63">
        <route edges="E11 E25 E39 E47"/>
    </vehicle>
    <vehicle id="E7_45.31" type="CarA" depart="43.74">
        <route edges="E7 E21 E35 E45"/>
    </vehicle>
    <vehicle id="E27_15.33" type="CarA" depart="43.99">
        <route edges="E27 E23 E19 E15"/>
    </vehicle>
    <vehicle id="E14_26.11" type="CarA" depart="44.00">
        <route edges="E14 E18 E22 E26"/>
    </vehicle>
    <vehicle id="E3_43.19" type="CarA" depart="44.12">
        <route edges="E3 E17 E31 E43"/>
    </vehicle>
    <vehicle id="E0_12.26" type="CarA" depart="44.56">
        <route edges="E0 E4 E8 E12"/>
    </vehicle>
    <vehicle id="E44_6.28" type="CarA" depart="44.58">
        <route edges="E44 E34 E20 E6"/>
    </vehicle>