<?xml version="1.0" encoding="UTF-8"?>

<!-- generated on 05/04/16 12:35:38 by SUMO duarouter Version 0.24.0
<?xml version="1.0" encoding="UTF-8"?>

<configuration xmlns:xsi="http://www.w3.org/2001/XMLSchema-instance" xsi:noNamespaceSchemaLocation="http://sumo.dlr.de/xsd/duarouterConfiguration.xsd">

    <input>
        <net-file value="Data/Mapas/1/1.net.xml"/>
        <flow-files value="Data/Mapas/1/flows.xml"/>
    </input>

    <output>
        <output-file value="Data/Mapas/1/flow.rou.xml"/>
    </output>

</configuration>
-->

<routes>
    <vType id="CarA" length="5.00" minGap="2.50" maxSpeed="60.00" color="red">
        <carFollowing-Krauss accel="10.00" decel="4.00" sigma="0.50"/>
    </vType>
    <vehicle id="E1_2.0" type="CarA" depart="0.00">
        <route edges="E1 E2"/>
    </vehicle>
    <vehicle id="E3_6.0" type="CarA" depart="0.00">
        <route edges="E3 E6"/>
    </vehicle>
    <vehicle id="E5_7.0" type="CarA" depart="0.00">
        <route edges="E5 E7"/>
    </vehicle>
    <vehicle id="E8_9.0" type="CarA" depart="0.00">
        <route edges="E8 E9"/>
    </vehicle>
    <vehicle id="E1_2.1" type="CarA" depart="3.60">
        <route edges="E1 E2"/>
    </vehicle>
    <vehicle id="E3_6.1" type="CarA" depart="4.24">
        <route edges="E3 E6"/>
    </vehicle>
    <vehicle id="E8_9.1" type="CarA" depart="5.54">
        <route edges="E8 E9"/>
    </vehicle>
    <vehicle id="E1_2.2" type="CarA" depart="7.20">
        <route edges="E1 E2"/>
    </vehicle>
    <vehicle id="E5_7.1" type="CarA" depart="7.20">
        <route edges="E5 E7"/>
    </vehicle>
    <vehicle id="E3_6.2" type="CarA" depart="8.47">
        <route edges="E3 E6"/>
    </vehicle>
    <vehicle id="E1_2.3" type="CarA" depart="10.80">
        <route edges="E1 E2"/>
    </vehicle>
    <vehicle id="E8_9.2" type="CarA" depart="11.08">
        <route edges="E8 E9"/>
    </vehicle>
    <vehicle id="E3_6.3" type="CarA" depart="12.71">
        <route edges="E3 E6"/>
    </vehicle>
    <vehicle id="E1_2.4" type="CarA" depart="14.40">
        <route edges="E1 E2"/>
    </vehicle>
    <vehicle id="E5_7.2" type="CarA" depart="14.40">
        <route edges="E5 E7"/>
    </vehicle>
    <vehicle id="E8_9.3" type="CarA" depart="16.61">
        <route edges="E8 E9"/>
    </vehicle>
    <vehicle id="E3_6.4" type="CarA" depart="16.94">
        <route edges="E3 E6"/>
    </vehicle>
    <vehicle id="E1_2.5" type="CarA" depart="18.00">
        <route edges="E1 E2"/>
    </vehicle>
    <vehicle id="E3_6.5" type="CarA" depart="21.18">
        <route edges="E3 E6"/>
    </vehicle>
    <vehicle id="E1_2.6" type="CarA" depart="21.60">
        <route edges="E1 E2"/>
    </vehicle>
    <vehicle id="E5_7.3" type="CarA" depart="21.60">
        <route edges="E5 E7"/>
    </vehicle>
    <vehicle id="E8_9.4" type="CarA" depart="22.15">
        <route edges="E8 E9"/>
    </vehicle>
    <vehicle id="E1_2.7" type="CarA" depart="25.20">
        <route edges="E1 E2"/>
    </vehicle>
    <vehicle id="E3_6.6" type="CarA" depart="25.41">
        <route edges="E3 E6"/>
    </vehicle>
    <vehicle id="E8_9.5" type="CarA" depart="27.69">
        <route edges="E8 E9"/>
    </vehicle>
    <vehicle id="E1_2.8" type="CarA" depart="28.80">
        <route edges="E1 E2"/>
    </vehicle>
    <vehicle id="E5_7.4" type="CarA" depart="28.80">
        <route edges="E5 E7"/>
    </vehicle>
    <vehicle id="E3_6.7" type="CarA" depart="29.65">
        <route edges="E3 E6"/>
    </vehicle>
    <vehicle id="E1_2.9" type="CarA" depart="32.40">
        <route edges="E1 E2"/>
    </vehicle>
    <vehicle id="E8_9.6" type="CarA" depart="33.23">
        <route edges="E8 E9"/>
    </vehicle>
    <vehicle id="E3_6.8" type="CarA" depart="33.88">
        <route edges="E3 E6"/>
    </vehicle>
    <vehicle id="E1_2.10" type="CarA" depart="36.00">
        <route edges="E1 E2"/>
    </vehicle>
    <vehicle id="E5_7.5" type="CarA" depart="36.00">
        <route edges="E5 E7"/>
    </vehicle>
    <vehicle id="E3_6.9" type="CarA" depart="38.12">
        <route edges="E3 E6"/>
    </vehicle>
    <vehicle id="E8_9.7" type="CarA" depart="38.77">
        <route edges="E8 E9"/>
    </vehicle>
    <vehicle id="E1_2.11" type="CarA" depart="39.60">
        <route edges="E1 E2"/>
    </vehicle>
    <vehicle id="E3_6.10" type="CarA" depart="42.35">
        <route edges="E3 E6"/>
    </vehicle>
    <vehicle id="E1_2.12" type="CarA" depart="43.20">
        <route edges="E1 E2"/>
    </vehicle>
    <vehicle id="E5_7.6" type="CarA" depart="43.20">
        <route edges="E5 E7"/>
    </vehicle>
    <vehicle id="E8_9.8" type="CarA" depart="44.30">
        <route edges="E8 E9"/>
    </vehicle>
    <vehicle id="E3_6.11" type="CarA" depart="46.59">
        <route edges="E3 E6"/>
    </vehicle>
    <vehicle id="E1_2.13" type="CarA" depart="46.80">
        <route edges="E1 E2"/>
    </vehicle>
    <vehicle id="E8_9.9" type="CarA" depart="49.84">
        <route edges="E8 E9"/>
    </vehicle>
    <vehicle id="E1_2.14" type="CarA" depart="50.40">
        <route edges="E1 E2"/>
    </vehicle>
    <vehicle id="E5_7.7" type="CarA" depart="50.40">
        <route edges="E5 E7"/>
    </vehicle>
    <vehicle id="E3_6.12" type="CarA" depart="50.82">
        <route edges="E3 E6"/>
    </vehicle>
    <vehicle id="E1_2.15" type="CarA" depart="54.00">
        <route edges="E1 E2"/>
    </vehicle>
    <vehicle id="E3_6.13" type="CarA" depart="55.06">
        <route edges="E3 E6"/>
    </vehicle>
    <vehicle id="E8_9.10" type="CarA" depart="55.38">
        <route edges="E8 E9"/>
    </vehicle>
    <vehicle id="E1_2.16" type="CarA" depart="57.60">
        <route edges="E1 E2"/>
    </vehicle>
    <vehicle id="E5_7.8" type="CarA" depart="57.60">
        <route edges="E5 E7"/>
    </vehicle>
    <vehicle id="E3_6.14" type="CarA" depart="59.29">
        <route edges="E3 E6"/>
    </vehicle>
    <vehicle id="E8_9.11" type="CarA" depart="60.92">
        <route edges="E8 E9"/>
    </vehicle>
    <vehicle id="E1_2.17" type="CarA" depart="61.20">
        <route edges="E1 E2"/>
    </vehicle>
    <vehicle id="E3_6.15" type="CarA" depart="63.52">
        <route edges="E3 E6"/>
    </vehicle>
    <vehicle id="E1_2.18" type="CarA" depart="64.80">
        <route edges="E1 E2"/>
    </vehicle>
    <vehicle id="E5_7.9" type="CarA" depart="64.80">
        <route edges="E5 E7"/>
    </vehicle>
    <vehicle id="E8_9.12" type="CarA" depart="66.46">
        <route edges="E8 E9"/>
    </vehicle>
    <vehicle id="E3_6.16" type="CarA" depart="67.76">
        <route edges="E3 E6"/>
    </vehicle>
    <vehicle id="E1_2.19" type="CarA" depart="68.40">
        <route edges="E1 E2"/>
    </vehicle>
    <vehicle id="E8_9.13" type="CarA" depart="71.99">
        <route edges="E8 E9"/>
    </vehicle>
    <vehicle id="E3_6.17" type="CarA" depart="72.00">
        <route edges="E3 E6"/>
    </vehicle>
    <vehicle id="E1_2.20" type="CarA" depart="72.00">
        <route edges="E1 E2"/>
    </vehicle>
    <vehicle id="E5_7.10" type="CarA" depart="72.00">
        <route edges="E5 E7"/>
    </vehicle>
    <vehicle id="E1_2.21" type="CarA" depart="75.60">
        <route edges="E1 E2"/>
    </vehicle>
    <vehicle id="E3_6.18" type="CarA" depart="76.23">
        <route edges="E3 E6"/>
    </vehicle>
    <vehicle id="E8_9.14" type="CarA" depart="77.53">
        <route edges="E8 E9"/>
    </vehicle>
    <vehicle id="E1_2.22" type="CarA" depart="79.20">
        <route edges="E1 E2"/>
    </vehicle>
    <vehicle id="E5_7.11" type="CarA" depart="79.20">
        <route edges="E5 E7"/>
    </vehicle>
    <vehicle id="E3_6.19" type="CarA" depart="80.47">
        <route edges="E3 E6"/>
    </vehicle>
    <vehicle id="E1_2.23" type="CarA" depart="82.80">
        <route edges="E1 E2"/>
    </vehicle>
    <vehicle id="E8_9.15" type="CarA" depart="83.07">
        <route edges="E8 E9"/>
    </vehicle>
    <vehicle id="E3_6.20" type="CarA" depart="84.70">
        <route edges="E3 E6"/>
    </vehicle>
    <vehicle id="E1_2.24" type="CarA" depart="86.40">
        <route edges="E1 E2"/>
    </vehicle>
    <vehicle id="E5_7.12" type="CarA" depart="86.40">
        <route edges="E5 E7"/>
    </vehicle>
    <vehicle id="E8_9.16" type="CarA" depart="88.61">
        <route edges="E8 E9"/>
    </vehicle>
    <vehicle id="E3_6.21" type="CarA" depart="88.94">
        <route edges="E3 E6"/>
    </vehicle>
    <vehicle id="E1_2.25" type="CarA" depart="90.00">
        <route edges="E1 E2"/>
    </vehicle>
    <vehicle id="E3_6.22" type="CarA" depart="93.17">
        <route edges="E3 E6"/>
    </vehicle>
    <vehicle id="E1_2.26" type="CarA" depart="93.60">
        <route edges="E1 E2"/>
    </vehicle>
    <vehicle id="E5_7.13" type="CarA" depart="93.60">
        <route edges="E5 E7"/>
    </vehicle>
    <vehicle id="E8_9.17" type="CarA" depart="94.15">
        <route edges="E8 E9"/>
    </vehicle>
    <vehicle id="E1_2.27" type="CarA" depart="97.20">
        <route edges="E1 E2"/>
    </vehicle>
    <vehicle id="E3_6.23" type="CarA" depart="97.41">
        <route edges="E3 E6"/>
    </vehicle>
    <vehicle id="E8_9.18" type="CarA" depart="99.68">
        <route edges="E8 E9"/>
    </vehicle>
    <vehicle id="E1_2.28" type="CarA" depart="100.80">
        <route edges="E1 E2"/>
    </vehicle>
    <vehicle id="E5_7.14" type="CarA" depart="100.80">
        <route edges="E5 E7"/>
    </vehicle>
    <vehicle id="E3_6.24" type="CarA" depart="101.64">
        <route edges="E3 E6"/>
    </vehicle>
    <vehicle id="E1_2.29" type="CarA" depart="104.40">
        <route edges="E1 E2"/>
    </vehicle>
    <vehicle id="E8_9.19" type="CarA" depart="105.22">
        <route edges="E8 E9"/>
    </vehicle>
    <vehicle id="E3_6.25" type="CarA" depart="105.88">
        <route edges="E3 E6"/>
    </vehicle>
    <vehicle id="E1_2.30" type="CarA" depart="108.00">
        <route edges="E1 E2"/>
    </vehicle>
    <vehicle id="E5_7.15" type="CarA" depart="108.00">
        <route edges="E5 E7"/>
    </vehicle>
    <vehicle id="E3_6.26" type="CarA" depart="110.11">
        <route edges="E3 E6"/>
    </vehicle>
    <vehicle id="E8_9.20" type="CarA" depart="110.76">
        <route edges="E8 E9"/>
    </vehicle>
    <vehicle id="E1_2.31" type="CarA" depart="111.60">
        <route edges="E1 E2"/>
    </vehicle>
    <vehicle id="E3_6.27" type="CarA" depart="114.35">
        <route edges="E3 E6"/>
    </vehicle>
    <vehicle id="E1_2.32" type="CarA" depart="115.20">
        <route edges="E1 E2"/>
    </vehicle>
    <vehicle id="E5_7.16" type="CarA" depart="115.20">
        <route edges="E5 E7"/>
    </vehicle>
    <vehicle id="E8_9.21" type="CarA" depart="116.30">
        <route edges="E8 E9"/>
    </vehicle>
    <vehicle id="E3_6.28" type="CarA" depart="118.58">
        <route edges="E3 E6"/>
    </vehicle>
    <vehicle id="E1_2.33" type="CarA" depart="118.80">
        <route edges="E1 E2"/>
    </vehicle>
    <vehicle id="E8_9.22" type="CarA" depart="121.84">
        <route edges="E8 E9"/>
    </vehicle>
    <vehicle id="E1_2.34" type="CarA" depart="122.40">
        <route edges="E1 E2"/>
    </vehicle>
    <vehicle id="E5_7.17" type="CarA" depart="122.40">
        <route edges="E5 E7"/>
    </vehicle>
    <vehicle id="E3_6.29" type="CarA" depart="122.82">
        <route edges="E3 E6"/>
    </vehicle>
    <vehicle id="E1_2.35" type="CarA" depart="126.00">
        <route edges="E1 E2"/>
    </vehicle>
    <vehicle id="E3_6.30" type="CarA" depart="127.05">
        <route edges="E3 E6"/>
    </vehicle>
    <vehicle id="E8_9.23" type="CarA" depart="127.37">
        <route edges="E8 E9"/>
    </vehicle>
    <vehicle id="E1_2.36" type="CarA" depart="129.60">
        <route edges="E1 E2"/>
    </vehicle>
    <vehicle id="E5_7.18" type="CarA" depart="129.60">
        <route edges="E5 E7"/>
    </vehicle>
    <vehicle id="E3_6.31" type="CarA" depart="131.29">
        <route edges="E3 E6"/>
    </vehicle>
    <vehicle id="E8_9.24" type="CarA" depart="132.91">
        <route edges="E8 E9"/>
    </vehicle>
    <vehicle id="E1_2.37" type="CarA" depart="133.20">
        <route edges="E1 E2"/>
    </vehicle>
    <vehicle id="E3_6.32" type="CarA" depart="135.52">
        <route edges="E3 E6"/>
    </vehicle>
    <vehicle id="E1_2.38" type="CarA" depart="136.80">
        <route edges="E1 E2"/>
    </vehicle>
    <vehicle id="E5_7.19" type="CarA" depart="136.80">
        <route edges="E5 E7"/>
    </vehicle>
    <vehicle id="E8_9.25" type="CarA" depart="138.45">
        <route edges="E8 E9"/>
    </vehicle>
    <vehicle id="E3_6.33" type="CarA" depart="139.76">
        <route edges="E3 E6"/>
    </vehicle>
    <vehicle id="E1_2.39" type="CarA" depart="140.40">
        <route edges="E1 E2"/>
    </vehicle>
    <vehicle id="E8_9.26" type="CarA" depart="143.99">
        <route edges="E8 E9"/>
    </vehicle>
    <vehicle id="E3_6.34" type="CarA" depart="143.99">
        <route edges="E3 E6"/>
    </vehicle>
    <vehicle id="E1_2.40" type="CarA" depart="144.00">
        <route edges="E1 E2"/>
    </vehicle>
    <vehicle id="E5_7.20" type="CarA" depart="144.00">
        <route edges="E5 E7"/>
    </vehicle>
    <vehicle id="E1_2.41" type="CarA" depart="147.60">
        <route edges="E1 E2"/>
    </vehicle>
    <vehicle id="E3_6.35" type="CarA" depart="148.22">
        <route edges="E3 E6"/>
    </vehicle>
    <vehicle id="E8_9.27" type="CarA" depart="149.53">
        <route edges="E8 E9"/>
    </vehicle>
    <vehicle id="E1_2.42" type="CarA" depart="151.20">
        <route edges="E1 E2"/>
    </vehicle>
    <vehicle id="E5_7.21" type="CarA" depart="151.20">
        <route edges="E5 E7"/>
    </vehicle>
    <vehicle id="E3_6.36" type="CarA" depart="152.46">
        <route edges="E3 E6"/>
    </vehicle>
    <vehicle id="E1_2.43" type="CarA" depart="154.80">
        <route edges="E1 E2"/>
    </vehicle>
    <vehicle id="E8_9.28" type="CarA" depart="155.06">
        <route edges="E8 E9"/>
    </vehicle>
    <vehicle id="E3_6.37" type="CarA" depart="156.69">
        <route edges="E3 E6"/>
    </vehicle>
    <vehicle id="E1_2.44" type="CarA" depart="158.40">
        <route edges="E1 E2"/>
    </vehicle>
    <vehicle id="E5_7.22" type="CarA" depart="158.40">
        <route edges="E5 E7"/>
    </vehicle>
    <vehicle id="E8_9.29" type="CarA" depart="160.60">
        <route edges="E8 E9"/>
    </vehicle>
    <vehicle id="E3_6.38" type="CarA" depart="160.93">
        <route edges="E3 E6"/>
    </vehicle>
    <vehicle id="E1_2.45" type="CarA" depart="162.00">
        <route edges="E1 E2"/>
    </vehicle>
    <vehicle id="E3_6.39" type="CarA" depart="165.16">
        <route edges="E3 E6"/>
    </vehicle>
    <vehicle id="E1_2.46" type="CarA" depart="165.60">
        <route edges="E1 E2"/>
    </vehicle>
    <vehicle id="E5_7.23" type="CarA" depart="165.60">
        <route edges="E5 E7"/>
    </vehicle>
    <vehicle id="E8_9.30" type="CarA" depart="166.14">
        <route edges="E8 E9"/>
    </vehicle>
    <vehicle id="E1_2.47" type="CarA" depart="169.20">
        <route edges="E1 E2"/>
    </vehicle>
    <vehicle id="E3_6.40" type="CarA" depart="169.40">
        <route edges="E3 E6"/>
    </vehicle>
    <vehicle id="E8_9.31" type="CarA" depart="171.68">
        <route edges="E8 E9"/>
    </vehicle>
    <vehicle id="E1_2.48" type="CarA" depart="172.80">
        <route edges="E1 E2"/>
    </vehicle>
    <vehicle id="E5_7.24" type="CarA" depart="172.80">
        <route edges="E5 E7"/>
    </vehicle>
    <vehicle id="E3_6.41" type="CarA" depart="173.63">
        <route edges="E3 E6"/>
    </vehicle>
    <vehicle id="E1_2.49" type="CarA" depart="176.40">
        <route edges="E1 E2"/>
    </vehicle>
    <vehicle id="E8_9.32" type="CarA" depart="177.22">
        <route edges="E8 E9"/>
    </vehicle>
    <vehicle id="E3_6.42" type="CarA" depart="177.87">
        <route edges="E3 E6"/>
    </vehicle>
    <vehicle id="E1_2.50" type="CarA" depart="180.00">
        <route edges="E1 E2"/>
    </vehicle>
    <vehicle id="E5_7.25" type="CarA" depart="180.00">
        <route edges="E5 E7"/>
    </vehicle>
    <vehicle id="E3_6.43" type="CarA" depart="182.10">
        <route edges="E3 E6"/>
    </vehicle>
    <vehicle id="E8_9.33" type="CarA" depart="182.75">
        <route edges="E8 E9"/>
    </vehicle>
    <vehicle id="E1_2.51" type="CarA" depart="183.60">
        <route edges="E1 E2"/>
    </vehicle>
    <vehicle id="E3_6.44" type="CarA" depart="186.34">
        <route edges="E3 E6"/>
    </vehicle>
    <vehicle id="E1_2.52" type="CarA" depart="187.20">
        <route edges="E1 E2"/>
    </vehicle>
    <vehicle id="E5_7.26" type="CarA" depart="187.20">
        <route edges="E5 E7"/>
    </vehicle>
    <vehicle id="E8_9.34" type="CarA" depart="188.29">
        <route edges="E8 E9"/>
    </vehicle>
    <vehicle id="E3_6.45" type="CarA" depart="190.58">
        <route edges="E3 E6"/>
    </vehicle>
    <vehicle id="E1_2.53" type="CarA" depart="190.80">
        <route edges="E1 E2"/>
    </vehicle>
    <vehicle id="E8_9.35" type="CarA" depart="193.83">
        <route edges="E8 E9"/>
    </vehicle>
    <vehicle id="E1_2.54" type="CarA" depart="194.40">
        <route edges="E1 E2"/>
    </vehicle>
    <vehicle id="E5_7.27" type="CarA" depart="194.40">
        <route edges="E5 E7"/>
    </vehicle>
    <vehicle id="E3_6.46" type="CarA" depart="194.81">
        <route edges="E3 E6"/>
    </vehicle>
    <vehicle id="E1_2.55" type="CarA" depart="198.00">
        <route edges="E1 E2"/>
    </vehicle>
    <vehicle id="E3_6.47" type="CarA" depart="199.05">
        <route edges="E3 E6"/>
    </vehicle>
    <vehicle id="E8_9.36" type="CarA" depart="199.37">
        <route edges="E8 E9"/>
    </vehicle>
    <vehicle id="E1_2.56" type="CarA" depart="201.60">
        <route edges="E1 E2"/>
    </vehicle>
    <vehicle id="E5_7.28" type="CarA" depart="201.60">
        <route edges="E5 E7"/>
    </vehicle>
    <vehicle id="E3_6.48" type="CarA" depart="203.28">
        <route edges="E3 E6"/>
    </vehicle>
    <vehicle id="E8_9.37" type="CarA" depart="204.91">
        <route edges="E8 E9"/>
    </vehicle>
    <vehicle id="E1_2.57" type="CarA" depart="205.20">
        <route edges="E1 E2"/>
    </vehicle>
    <vehicle id="E3_6.49" type="CarA" depart="207.52">
        <route edges="E3 E6"/>
    </vehicle>
    <vehicle id="E1_2.58" type="CarA" depart="208.80">
        <route edges="E1 E2"/>
    </vehicle>
    <vehicle id="E5_7.29" type="CarA" depart="208.80">
        <route edges="E5 E7"/>
    </vehicle>
    <vehicle id="E8_9.38" type="CarA" depart="210.44">
        <route edges="E8 E9"/>
    </vehicle>
    <vehicle id="E3_6.50" type="CarA" depart="211.75">
        <route edges="E3 E6"/>
    </vehicle>
    <vehicle id="E1_2.59" type="CarA" depart="212.40">
        <route edges="E1 E2"/>
    </vehicle>
    <vehicle id="E8_9.39" type="CarA" depart="215.98">
        <route edges="E8 E9"/>
    </vehicle>
    <vehicle id="E3_6.51" type="CarA" depart="215.99">
        <route edges="E3 E6"/>
    </vehicle>
    <vehicle id="E1_2.60" type="CarA" depart="216.00">
        <route edges="E1 E2"/>
    </vehicle>
    <vehicle id="E5_7.30" type="CarA" depart="216.00">
        <route edges="E5 E7"/>
    </vehicle>
    <vehicle id="E1_2.61" type="CarA" depart="219.60">
        <route edges="E1 E2"/>
    </vehicle>
    <vehicle id="E3_6.52" type="CarA" depart="220.22">
        <route edges="E3 E6"/>
    </vehicle>
    <vehicle id="E8_9.40" type="CarA" depart="221.52">
        <route edges="E8 E9"/>
    </vehicle>
    <vehicle id="E1_2.62" type="CarA" depart="223.20">
        <route edges="E1 E2"/>
    </vehicle>
    <vehicle id="E5_7.31" type="CarA" depart="223.20">
        <route edges="E5 E7"/>
    </vehicle>
    <vehicle id="E3_6.53" type="CarA" depart="224.46">
        <route edges="E3 E6"/>
    </vehicle>
    <vehicle id="E1_2.63" type="CarA" depart="226.80">
        <route edges="E1 E2"/>
    </vehicle>
    <vehicle id="E8_9.41" type="CarA" depart="227.06">
        <route edges="E8 E9"/>
    </vehicle>
    <vehicle id="E3_6.54" type="CarA" depart="228.69">
        <route edges="E3 E6"/>
    </vehicle>
    <vehicle id="E1_2.64" type="CarA" depart="230.40">
        <route edges="E1 E2"/>
    </vehicle>
    <vehicle id="E5_7.32" type="CarA" depart="230.40">
        <route edges="E5 E7"/>
    </vehicle>
    <vehicle id="E8_9.42" type="CarA" depart="232.60">
        <route edges="E8 E9"/>
    </vehicle>
    <vehicle id="E3_6.55" type="CarA" depart="232.93">
        <route edges="E3 E6"/>
    </vehicle>
    <vehicle id="E1_2.65" type="CarA" depart="234.00">
        <route edges="E1 E2"/>
    </vehicle>
    <vehicle id="E3_6.56" type="CarA" depart="237.16">
        <route edges="E3 E6"/>
    </vehicle>
    <vehicle id="E1_2.66" type="CarA" depart="237.60">
        <route edges="E1 E2"/>
    </vehicle>
    <vehicle id="E5_7.33" type="CarA" depart="237.60">
        <route edges="E5 E7"/>
    </vehicle>
    <vehicle id="E8_9.43" type="CarA" depart="238.13">
        <route edges="E8 E9"/>
    </vehicle>
    <vehicle id="E1_2.67" type="CarA" depart="241.20">
        <route edges="E1 E2"/>
    </vehicle>
    <vehicle id="E3_6.57" type="CarA" depart="241.40">
        <route edges="E3 E6"/>
    </vehicle>
    <vehicle id="E8_9.44" type="CarA" depart="243.67">
        <route edges="E8 E9"/>
    </vehicle>
    <vehicle id="E1_2.68" type="CarA" depart="244.80">
        <route edges="E1 E2"/>
    </vehicle>
    <vehicle id="E5_7.34" type="CarA" depart="244.80">
        <route edges="E5 E7"/>
    </vehicle>
    <vehicle id="E3_6.58" type="CarA" depart="245.63">
        <route edges="E3 E6"/>
    </vehicle>
    <vehicle id="E1_2.69" type="CarA" depart="248.40">
        <route edges="E1 E2"/>
    </vehicle>
    <vehicle id="E8_9.45" type="CarA" depart="249.21">
        <route edges="E8 E9"/>
    </vehicle>
    <vehicle id="E3_6.59" type="CarA" depart="249.87">
        <route edges="E3 E6"/>
    </vehicle>
    <vehicle id="E1_2.70" type="CarA" depart="252.00">
        <route edges="E1 E2"/>
    </vehicle>
    <vehicle id="E5_7.35" type="CarA" depart="252.00">
        <route edges="E5 E7"/>
    </vehicle>
    <vehicle id="E3_6.60" type="CarA" depart="254.10">
        <route edges="E3 E6"/>
    </vehicle>
    <vehicle id="E8_9.46" type="CarA" depart="254.75">
        <route edges="E8 E9"/>
    </vehicle>
    <vehicle id="E1_2.71" type="CarA" depart="255.60">
        <route edges="E1 E2"/>
    </vehicle>
    <vehicle id="E3_6.61" type="CarA" depart="258.33">
        <route edges="E3 E6"/>
    </vehicle>
    <vehicle id="E1_2.72" type="CarA" depart="259.20">
        <route edges="E1 E2"/>
    </vehicle>
    <vehicle id="E5_7.36" type="CarA" depart="259.20">
        <route edges="E5 E7"/>
    </vehicle>
    <vehicle id="E8_9.47" type="CarA" depart="260.29">
        <route edges="E8 E9"/>
    </vehicle>
    <vehicle id="E3_6.62" type="CarA" depart="262.57">
        <route edges="E3 E6"/>
    </vehicle>
    <vehicle id="E1_2.73" type="CarA" depart="262.80">
        <route edges="E1 E2"/>
    </vehicle>
    <vehicle id="E8_9.48" type="CarA" depart="265.82">
        <route edges="E8 E9"/>
    </vehicle>
    <vehicle id="E1_2.74" type="CarA" depart="266.40">
        <route edges="E1 E2"/>
    </vehicle>
    <vehicle id="E5_7.37" type="CarA" depart="266.40">
        <route edges="E5 E7"/>
    </vehicle>
    <vehicle id="E3_6.63" type="CarA" depart="266.81">
        <route edges="E3 E6"/>
    </vehicle>
    <vehicle id="E1_2.75" type="CarA" depart="270.00">
        <route edges="E1 E2"/>
    </vehicle>
    <vehicle id="E3_6.64" type="CarA" depart="271.04">
        <route edges="E3 E6"/>
    </vehicle>
    <vehicle id="E8_9.49" type="CarA" depart="271.36">
        <route edges="E8 E9"/>
    </vehicle>
    <vehicle id="E1_2.76" type="CarA" depart="273.60">
        <route edges="E1 E2"/>
    </vehicle>
    <vehicle id="E5_7.38" type="CarA" depart="273.60">
        <route edges="E5 E7"/>
    </vehicle>
    <vehicle id="E3_6.65" type="CarA" depart="275.28">
        <route edges="E3 E6"/>
    </vehicle>
    <vehicle id="E8_9.50" type="CarA" depart="276.90">
        <route edges="E8 E9"/>
    </vehicle>
    <vehicle id="E1_2.77" type="CarA" depart="277.20">
        <route edges="E1 E2"/>
    </vehicle>
    <vehicle id="E3_6.66" type="CarA" depart="279.51">
        <route edges="E3 E6"/>
    </vehicle>
    <vehicle id="E1_2.78" type="CarA" depart="280.80">
        <route edges="E1 E2"/>
    </vehicle>
    <vehicle id="E5_7.39" type="CarA" depart="280.80">
        <route edges="E5 E7"/>
    </vehicle>
    <vehicle id="E8_9.51" type="CarA" depart="282.44">
        <route edges="E8 E9"/>
    </vehicle>
    <vehicle id="E3_6.67" type="CarA" depart="283.75">
        <route edges="E3 E6"/>
    </vehicle>
    <vehicle id="E1_2.79" type="CarA" depart="284.40">
        <route edges="E1 E2"/>
    </vehicle>
    <vehicle id="E8_9.52" type="CarA" depart="287.98">
        <route edges="E8 E9"/>
    </vehicle>
    <vehicle id="E3_6.68" type="CarA" depart="287.98">
        <route edges="E3 E6"/>
    </vehicle>
    <vehicle id="E1_2.80" type="CarA" depart="288.00">
        <route edges="E1 E2"/>
    </vehicle>
    <vehicle id="E5_7.40" type="CarA" depart="288.00">
        <route edges="E5 E7"/>
    </vehicle>
    <vehicle id="E1_2.81" type="CarA" depart="291.60">
        <route edges="E1 E2"/>
    </vehicle>
    <vehicle id="E3_6.69" type="CarA" depart="292.22">
        <route edges="E3 E6"/>
    </vehicle>
    <vehicle id="E8_9.53" type="CarA" depart="293.51">
        <route edges="E8 E9"/>
    </vehicle>
    <vehicle id="E1_2.82" type="CarA" depart="295.20">
        <route edges="E1 E2"/>
    </vehicle>
    <vehicle id="E5_7.41" type="CarA" depart="295.20">
        <route edges="E5 E7"/>
    </vehicle>
    <vehicle id="E3_6.70" type="CarA" depart="296.45">
        <route edges="E3 E6"/>
    </vehicle>
    <vehicle id="E1_2.83" type="CarA" depart="298.80">
        <route edges="E1 E2"/>
    </vehicle>
    <vehicle id="E8_9.54" type="CarA" depart="299.05">
        <route edges="E8 E9"/>
    </vehicle>
    <vehicle id="E3_6.71" type="CarA" depart="300.69">
        <route edges="E3 E6"/>
    </vehicle>
    <vehicle id="E1_2.84" type="CarA" depart="302.40">
        <route edges="E1 E2"/>
    </vehicle>
    <vehicle id="E5_7.42" type="CarA" depart="302.40">
        <route edges="E5 E7"/>
    </vehicle>
    <vehicle id="E8_9.55" type="CarA" depart="304.59">
        <route edges="E8 E9"/>
    </vehicle>
    <vehicle id="E3_6.72" type="CarA" depart="304.92">
        <route edges="E3 E6"/>
    </vehicle>
    <vehicle id="E1_2.85" type="CarA" depart="306.00">
        <route edges="E1 E2"/>
    </vehicle>
    <vehicle id="E3_6.73" type="CarA" depart="309.16">
        <route edges="E3 E6"/>
    </vehicle>
    <vehicle id="E1_2.86" type="CarA" depart="309.60">
        <route edges="E1 E2"/>
    </vehicle>
    <vehicle id="E5_7.43" type="CarA" depart="309.60">
        <route edges="E5 E7"/>
    </vehicle>
    <vehicle id="E8_9.56" type="CarA" depart="310.13">
        <route edges="E8 E9"/>
    </vehicle>
    <vehicle id="E1_2.87" type="CarA" depart="313.20">
        <route edges="E1 E2"/>
    </vehicle>
    <vehicle id="E3_6.74" type="CarA" depart="313.39">
        <route edges="E3 E6"/>
    </vehicle>
    <vehicle id="E8_9.57" type="CarA" depart="315.67">
        <route edges="E8 E9"/>
    </vehicle>
    <vehicle id="E1_2.88" type="CarA" depart="316.80">
        <route edges="E1 E2"/>
    </vehicle>
    <vehicle id="E5_7.44" type="CarA" depart="316.80">
        <route edges="E5 E7"/>
    </vehicle>
    <vehicle id="E3_6.75" type="CarA" depart="317.63">
        <route edges="E3 E6"/>
    </vehicle>
    <vehicle id="E1_2.89" type="CarA" depart="320.40">
        <route edges="E1 E2"/>
    </vehicle>
    <vehicle id="E8_9.58" type="CarA" depart="321.20">
        <route edges="E8 E9"/>
    </vehicle>
    <vehicle id="E3_6.76" type="CarA" depart="321.86">
        <route edges="E3 E6"/>
    </vehicle>
    <vehicle id="E1_2.90" type="CarA" depart="324.00">
        <route edges="E1 E2"/>
    </vehicle>
    <vehicle id="E5_7.45" type="CarA" depart="324.00">
        <route edges="E5 E7"/>
    </vehicle>
    <vehicle id="E3_6.77" type="CarA" depart="326.10">
        <route edges="E3 E6"/>
    </vehicle>
    <vehicle id="E8_9.59" type="CarA" depart="326.74">
        <route edges="E8 E9"/>
    </vehicle>
    <vehicle id="E1_2.91" type="CarA" depart="327.60">
        <route edges="E1 E2"/>
    </vehicle>
    <vehicle id="E3_6.78" type="CarA" depart="330.33">
        <route edges="E3 E6"/>
    </vehicle>
    <vehicle id="E1_2.92" type="CarA" depart="331.20">
        <route edges="E1 E2"/>
    </vehicle>
    <vehicle id="E5_7.46" type="CarA" depart="331.20">
        <route edges="E5 E7"/>
    </vehicle>
    <vehicle id="E8_9.60" type="CarA" depart="332.28">
        <route edges="E8 E9"/>
    </vehicle>
    <vehicle id="E3_6.79" type="CarA" depart="334.57">
        <route edges="E3 E6"/>
    </vehicle>
    <vehicle id="E1_2.93" type="CarA" depart="334.80">
        <route edges="E1 E2"/>
    </vehicle>
    <vehicle id="E8_9.61" type="CarA" depart="337.82">
        <route edges="E8 E9"/>
    </vehicle>
    <vehicle id="E1_2.94" type="CarA" depart="338.40">
        <route edges="E1 E2"/>
    </vehicle>
    <vehicle id="E5_7.47" type="CarA" depart="338.40">
        <route edges="E5 E7"/>
    </vehicle>
    <vehicle id="E3_6.80" type="CarA" depart="338.80">
        <route edges="E3 E6"/>
    </vehicle>
    <vehicle id="E1_2.95" type="CarA" depart="342.00">
        <route edges="E1 E2"/>
    </vehicle>
    <vehicle id="E3_6.81" type="CarA" depart="343.04">
        <route edges="E3 E6"/>
    </vehicle>
    <vehicle id="E8_9.62" type="CarA" depart="343.36">
        <route edges="E8 E9"/>
    </vehicle>
    <vehicle id="E1_2.96" type="CarA" depart="345.60">
        <route edges="E1 E2"/>
    </vehicle>
    <vehicle id="E5_7.48" type="CarA" depart="345.60">
        <route edges="E5 E7"/>
    </vehicle>